@<TRIPOS>MOLECULE
1
 14 14 0 0 0
SMALL
GASTEIGER

@<TRIPOS>ATOM
      1 C           6.4335   -2.7130    3.2092 C.3     1  UNL1       -0.0237
      2 C           7.4518   -3.5936    3.8041 C.ar    1  UNL1       -0.0470
      3 C           8.3835   -4.2576    2.9924 C.ar    1  UNL1       -0.0586
      4 C           9.3580   -5.0745    3.5308 C.ar    1  UNL1       -0.0615
      5 C           9.4284   -5.2709    4.9010 C.ar    1  UNL1       -0.0617
      6 C           8.4962   -4.6549    5.7199 C.ar    1  UNL1       -0.0615
      7 C           7.5214   -3.8362    5.1818 C.ar    1  UNL1       -0.0586
      8 H           5.4789   -2.8270    3.7397 H       1  UNL1        0.0316
      9 H           6.2833   -3.0020    2.1619 H       1  UNL1        0.0316
     10 H           8.3251   -4.1361    1.9165 H       1  UNL1        0.0620
     11 H          10.0642   -5.5689    2.8787 H       1  UNL1        0.0618
     12 H          10.1913   -5.9077    5.3233 H       1  UNL1        0.0618
     13 H           8.5261   -4.8194    6.7880 H       1  UNL1        0.0618
     14 H           6.7904   -3.3889    5.8418 H       1  UNL1        0.0620
@<TRIPOS>BOND
     1    10     3    1
     2     9     1    1
     3    11     4    1
     4     3     4   ar
     5     3     2   ar
     6     1     8    1
     7     1     2    1
     8     4     5   ar
     9     2     7   ar
    10     5    12    1
    11     5     6   ar
    12     7     6   ar
    13     7    14    1
    14     6    13    1
