@<TRIPOS>MOLECULE
1
 14 14 0 0 0
SMALL
GASTEIGER

@<TRIPOS>ATOM
      1 C           8.9523   -0.8993    2.5982 C.3     1  UNL1       -0.0237
      2 C           9.8917   -0.4798    3.6509 C.ar    1  UNL1       -0.0470
      3 C          10.4496    0.8058    3.6769 C.ar    1  UNL1       -0.0586
      4 C          11.3053    1.1950    4.6899 C.ar    1  UNL1       -0.0615
      5 C          11.6436    0.3115    5.7016 C.ar    1  UNL1       -0.0617
      6 C          11.1265   -0.9745    5.6781 C.ar    1  UNL1       -0.0615
      7 C          10.2699   -1.3668    4.6686 C.ar    1  UNL1       -0.0586
      8 H           9.1022   -1.9616    2.3719 H       1  UNL1        0.0316
      9 H           9.1252   -0.3291    1.6748 H       1  UNL1        0.0316
     10 H          10.2139    1.5088    2.8875 H       1  UNL1        0.0620
     11 H          11.7164    2.1949    4.6865 H       1  UNL1        0.0618
     12 H          12.3129    0.6169    6.4921 H       1  UNL1        0.0618
     13 H          11.4001   -1.6797    6.4505 H       1  UNL1        0.0618
     14 H           9.8896   -2.3804    4.6538 H       1  UNL1        0.0620
@<TRIPOS>BOND
     1     9     1    1
     2     8     1    1
     3     1     2    1
     4    10     3    1
     5     2     3   ar
     6     2     7   ar
     7     3     4   ar
     8    14     7    1
     9     7     6   ar
    10    11     4    1
    11     4     5   ar
    12     6     5   ar
    13     6    13    1
    14     5    12    1
