@<TRIPOS>MOLECULE
2
 17 16 0 0 0
SMALL
GASTEIGER

@<TRIPOS>ATOM
      1 SI          4.6713    3.2495    6.0357 Si      1  UNL1        0.0000
      2 C           5.1032    2.9160    0.4240 C.1     1  UNL1        0.0000
      3 C           5.0063    2.9871    1.6396 C.1     1  UNL1        0.0000
      4 C           4.8941    3.0679    2.9874 C.1     1  UNL1        0.0000
      5 C           4.8070    3.1375    4.2005 C.1     1  UNL1        0.0000
      6 C           4.6549    1.4896    6.7753 C.3     1  UNL1        0.0000
      7 H           3.8178    0.9129    6.3932 H       1  UNL1        0.0000
      8 H           4.5731    1.5115    7.8586 H       1  UNL1        0.0000
      9 H           5.5640    0.9512    6.5244 H       1  UNL1        0.0000
     10 C           6.1670    4.2180    6.7214 C.3     1  UNL1        0.0000
     11 H           7.1014    3.7273    6.4657 H       1  UNL1        0.0000
     12 H           6.1257    4.3045    7.8037 H       1  UNL1        0.0000
     13 H           6.2032    5.2230    6.3117 H       1  UNL1        0.0000
     14 C           3.0553    4.1551    6.4967 C.3     1  UNL1        0.0000
     15 H           3.0385    5.1593    6.0836 H       1  UNL1        0.0000
     16 H           2.9364    4.2393    7.5735 H       1  UNL1        0.0000
     17 H           2.1882    3.6285    6.1094 H       1  UNL1        0.0000
@<TRIPOS>BOND
     1     2     3    3
     2     3     4    1
     3     4     5    3
     4     5     1    1
     5     1    14    1
     6     1    10    1
     7     1     6    1
     8    15    14    1
     9    17    14    1
    10    13    10    1
    11     7     6    1
    12    11    10    1
    13    14    16    1
    14     9     6    1
    15    10    12    1
    16     6     8    1
