@<TRIPOS>MOLECULE
1
 4 3 0 0 0
SMALL
GASTEIGER

@<TRIPOS>ATOM
      1 C           2.2033    6.2538   13.6758 C.3     1  UNL1       -0.0681
      2 H           2.6861    7.0778   13.1259 H       1  UNL1        0.0227
      3 H           3.0362    5.6520   14.0741 H       1  UNL1        0.0227
      4 H           1.7448    5.6232   12.8970 H       1  UNL1        0.0227
@<TRIPOS>BOND
     1     4     1    1
     2     2     1    1
     3     1     3    1
