@<TRIPOS>MOLECULE
2
 16 15 0 0 0
SMALL
GASTEIGER

@<TRIPOS>ATOM
      1 SI          7.0512   12.1896    9.5287 Si      1  UNL1        0.0000
      2 C           6.8899   11.3082    7.8818 C.3     1  UNL1        0.0000
      3 H           7.8888   10.9260    7.6161 H       1  UNL1        0.0000
      4 H           6.6688   12.0793    7.1271 H       1  UNL1        0.0000
      5 C           8.6349   13.2660    9.7118 C.3     1  UNL1        0.0000
      6 H           8.7173   13.7131   10.6986 H       1  UNL1        0.0000
      7 H           9.5317   12.6758    9.5451 H       1  UNL1        0.0000
      8 H           8.6410   14.0735    8.9859 H       1  UNL1        0.0000
      9 C           5.5986   13.3852    9.8910 C.3     1  UNL1        0.0000
     10 H           5.7451   13.9048   10.8337 H       1  UNL1        0.0000
     11 H           5.5211   14.1381    9.1138 H       1  UNL1        0.0000
     12 H           4.6434   12.8749    9.9420 H       1  UNL1        0.0000
     13 C           7.1415   10.9575   11.0052 C.3     1  UNL1        0.0000
     14 H           6.8393   11.4366   11.9315 H       1  UNL1        0.0000
     15 H           6.4991   10.0954   10.8450 H       1  UNL1        0.0000
     16 H           8.1568   10.6000   11.1491 H       1  UNL1        0.0000
@<TRIPOS>BOND
     1     4     2    1
     2     3     2    1
     3     2     1    1
     4     8     5    1
     5    11     9    1
     6     1     5    1
     7     1     9    1
     8     1    13    1
     9     7     5    1
    10     5     6    1
    11     9    12    1
    12     9    10    1
    13    15    13    1
    14    13    16    1
    15    13    14    1
