@<TRIPOS>MOLECULE
2
 16 15 0 0 0
SMALL
GASTEIGER

@<TRIPOS>ATOM
      1 SI          7.2238    8.1472    4.4057 Si      1  UNL1        0.0000
      2 C           6.8801    7.8393    6.2248 C.3     1  UNL1        0.0000
      3 H           7.8362    7.9193    6.7590 H       1  UNL1        0.0000
      4 H           6.5327    6.8089    6.3798 H       1  UNL1        0.0000
      5 C           8.7136    7.1752    3.6710 C.3     1  UNL1        0.0000
      6 H           8.8748    7.4096    2.6231 H       1  UNL1        0.0000
      7 H           9.6311    7.4090    4.2025 H       1  UNL1        0.0000
      8 H           8.5592    6.1028    3.7454 H       1  UNL1        0.0000
      9 C           7.6210   10.0055    4.1584 C.3     1  UNL1        0.0000
     10 H           7.7733   10.2497    3.1114 H       1  UNL1        0.0000
     11 H           6.8140   10.6323    4.5340 H       1  UNL1        0.0000
     12 H           8.5261   10.2814    4.6914 H       1  UNL1        0.0000
     13 C           5.7245    7.6814    3.3057 C.3     1  UNL1        0.0000
     14 H           5.8903    7.9771    2.2748 H       1  UNL1        0.0000
     15 H           5.5486    6.6105    3.3121 H       1  UNL1        0.0000
     16 H           4.8189    8.1711    3.6469 H       1  UNL1        0.0000
@<TRIPOS>BOND
     1    14    13    1
     2     6     5    1
     3    10     9    1
     4    13    15    1
     5    13    16    1
     6    13     1    1
     7     5     8    1
     8     5     7    1
     9     5     1    1
    10     9     1    1
    11     9    11    1
    12     9    12    1
    13     1     2    1
    14     2     4    1
    15     2     3    1
