@<TRIPOS>MOLECULE
5
 37 39 0 0 0
SMALL
GASTEIGER

@<TRIPOS>ATOM
      1 O           2.3067    1.7359    1.2088 O.2     1  UNL1       -0.4739
      2 O           1.3185    4.3229   -0.8651 O.2     1  UNL1       -0.4739
      3 N           2.1379    5.2534    1.0419 N.pl3   1  UNL1       -0.2630
      4 N           2.7136    3.6865    2.3103 N.pl3   1  UNL1       -0.2630
      5 C           2.6591    5.0389    2.2721 C.3     1  UNL1        0.1927
      6 C           1.8719    4.0934    0.3451 C.2     1  UNL1        0.2442
      7 C           2.2384    3.0842    1.1632 C.2     1  UNL1        0.2442
      8 C           1.8082    6.4008    0.2286 C.3     1  UNL1        0.0649
      9 H           1.2047    7.1074    0.8076 H       1  UNL1        0.0537
     10 C           2.0166    2.6433    4.4303 C.3     1  UNL1       -0.0248
     11 H           1.9948    3.6613    4.8414 H       1  UNL1        0.0314
     12 C           3.0507    2.6772    3.2865 C.3     1  UNL1        0.0649
     13 H           4.0409    2.8697    3.7120 H       1  UNL1        0.0537
     14 C           0.6119    2.3043    3.9396 C.3     1  UNL1       -0.0609
     15 H           0.2769    3.0238    3.1961 H       1  UNL1        0.0233
     16 H           0.5655    1.3081    3.5059 H       1  UNL1        0.0233
     17 H          -0.0823    2.3413    4.7750 H       1  UNL1        0.0233
     18 C           3.0699    1.4259    2.3766 C.3     1  UNL1        0.1099
     19 H           4.0951    1.1864    2.0692 H       1  UNL1        0.0716
     20 H           2.6263    0.5469    2.8432 H       1  UNL1        0.0716
     21 C           3.0804    7.1170   -0.2664 C.3     1  UNL1       -0.0248
     22 H           3.6782    7.3134    0.6337 H       1  UNL1        0.0314
     23 C           2.4696    1.6845    5.5273 C.3     1  UNL1       -0.0609
     24 H           3.4554    1.9602    5.8942 H       1  UNL1        0.0233
     25 H           1.7737    1.7231    6.3609 H       1  UNL1        0.0233
     26 H           2.5095    0.6596    5.1651 H       1  UNL1        0.0233
     27 C           0.9654    5.7091   -0.8687 C.3     1  UNL1        0.1099
     28 H          -0.1046    5.7951   -0.6441 H       1  UNL1        0.0716
     29 H           1.1519    6.0988   -1.8685 H       1  UNL1        0.0716
     30 C           2.7182    8.4506   -0.9130 C.3     1  UNL1       -0.0609
     31 H           2.1785    9.0813   -0.2107 H       1  UNL1        0.0233
     32 H           3.6218    8.9727   -1.2154 H       1  UNL1        0.0233
     33 H           2.0977    8.3049   -1.7947 H       1  UNL1        0.0233
     34 C           3.9127    6.2543   -1.2119 C.3     1  UNL1       -0.0609
     35 H           4.8600    6.7467   -1.4154 H       1  UNL1        0.0233
     36 H           4.1292    5.2850   -0.7682 H       1  UNL1        0.0233
     37 H           3.4059    6.0925   -2.1603 H       1  UNL1        0.0233
@<TRIPOS>BOND
     1    37    34    1
     2    29    27    1
     3    33    30    1
     4    35    34    1
     5    32    30    1
     6    34    36    1
     7    34    21    1
     8    30    21    1
     9    30    31    1
    10    27     2    1
    11    27    28    1
    12    27     8    1
    13     2     6    1
    14    21     8    1
    15    21    22    1
    16     8     9    1
    17     8     3    1
    18     6     3    1
    19     6     7    2
    20     3     5    1
    21     7     1    1
    22     7     4    1
    23     1    18    1
    24    19    18    1
    25     5     4    1
    26     4    12    1
    27    18    20    1
    28    18    12    1
    29    15    14    1
    30    12    13    1
    31    12    10    1
    32    16    14    1
    33    14    10    1
    34    14    17    1
    35    10    11    1
    36    10    23    1
    37    26    23    1
    38    23    24    1
    39    23    25    1
