@<TRIPOS>MOLECULE
2
 16 15 0 0 0
SMALL
GASTEIGER

@<TRIPOS>ATOM
      1 SI          4.1574    6.8398    7.3874 Si      1  UNL1        0.0000
      2 C           4.0362    5.7406    5.8609 C.3     1  UNL1        0.0000
      3 H           3.4779    4.8378    6.1565 H       1  UNL1        0.0000
      4 H           5.0556    5.3767    5.6390 H       1  UNL1        0.0000
      5 C           4.9636    8.5062    6.8872 C.3     1  UNL1        0.0000
      6 H           5.0646    9.1767    7.7351 H       1  UNL1        0.0000
      7 H           5.9545    8.3564    6.4695 H       1  UNL1        0.0000
      8 H           4.3588    9.0127    6.1337 H       1  UNL1        0.0000
      9 C           5.1636    6.1485    8.8708 C.3     1  UNL1        0.0000
     10 H           5.1847    6.8439    9.7049 H       1  UNL1        0.0000
     11 H           4.7402    5.2164    9.2337 H       1  UNL1        0.0000
     12 H           6.1926    5.9494    8.5858 H       1  UNL1        0.0000
     13 C           2.4015    7.2458    8.0401 C.3     1  UNL1        0.0000
     14 H           2.4377    7.9612    8.8557 H       1  UNL1        0.0000
     15 H           1.7853    7.6709    7.2511 H       1  UNL1        0.0000
     16 H           1.8986    6.3576    8.4092 H       1  UNL1        0.0000
@<TRIPOS>BOND
     1     4     2    1
     2     2     3    1
     3     2     1    1
     4     8     5    1
     5     7     5    1
     6     5     1    1
     7     5     6    1
     8    15    13    1
     9     1    13    1
    10     1     9    1
    11    13    16    1
    12    13    14    1
    13    12     9    1
    14     9    11    1
    15     9    10    1
