@<TRIPOS>MOLECULE
2
 16 15 0 0 0
SMALL
GASTEIGER

@<TRIPOS>ATOM
      1 SI         -0.3708    7.0925    4.1812 Si      1  UNL1        0.0000
      2 C           1.2631    7.9695    3.8784 C.3     1  UNL1        0.0000
      3 H           1.3559    8.7366    4.6688 H       1  UNL1        0.0000
      4 H           1.1754    8.5505    2.9440 H       1  UNL1        0.0000
      5 C          -0.9240    6.0822    2.6404 C.3     1  UNL1        0.0000
      6 H          -1.8492    5.5499    2.8374 H       1  UNL1        0.0000
      7 H          -1.1008    6.7283    1.7856 H       1  UNL1        0.0000
      8 H          -0.1774    5.3461    2.3570 H       1  UNL1        0.0000
      9 C          -0.1499    5.8411    5.6221 C.3     1  UNL1        0.0000
     10 H          -0.7276    4.9350    5.4683 H       1  UNL1        0.0000
     11 H           0.9009    5.5632    5.7305 H       1  UNL1        0.0000
     12 H          -0.4695    6.2715    6.5654 H       1  UNL1        0.0000
     13 C          -1.8827    8.1907    4.6245 C.3     1  UNL1        0.0000
     14 H          -2.7694    7.5998    4.8369 H       1  UNL1        0.0000
     15 H          -1.6750    8.7940    5.5033 H       1  UNL1        0.0000
     16 H          -2.1299    8.8721    3.8154 H       1  UNL1        0.0000
@<TRIPOS>BOND
     1     7     5    1
     2     8     5    1
     3     5     6    1
     4     5     1    1
     5     4     2    1
     6    16    13    1
     7     2     1    1
     8     2     3    1
     9     1    13    1
    10     1     9    1
    11    13    14    1
    12    13    15    1
    13    10     9    1
    14     9    11    1
    15     9    12    1
