@<TRIPOS>MOLECULE
5
 37 39 0 0 0
SMALL
GASTEIGER

@<TRIPOS>ATOM
      1 O           0.7885    5.9312    8.5851 O.2     1  UNL1       -0.4739
      2 O           1.7703    7.2206   11.6312 O.2     1  UNL1       -0.4739
      3 N           3.1500    8.1051   10.0454 N.pl3   1  UNL1       -0.2630
      4 N           2.5488    7.3229    8.1914 N.pl3   1  UNL1       -0.2630
      5 C           3.4599    8.1643    8.7290 C.3     1  UNL1        0.1927
      6 C           3.5916    8.7569   11.2557 C.3     1  UNL1        0.0649
      7 H           4.6685    8.6113   11.3936 H       1  UNL1        0.0537
      8 C           2.0814    7.2742   10.3163 C.2     1  UNL1        0.2442
      9 C           0.8811    6.1150    7.1701 C.3     1  UNL1        0.1099
     10 H           0.0280    6.7208    6.8443 H       1  UNL1        0.0716
     11 H           0.8140    5.1318    6.7043 H       1  UNL1        0.0716
     12 C           1.7014    6.7652    9.1264 C.2     1  UNL1        0.2442
     13 C           1.8459   10.5795   10.9096 C.3     1  UNL1       -0.0609
     14 H           1.5658   10.1968    9.9311 H       1  UNL1        0.0233
     15 H           1.1820   10.1488   11.6566 H       1  UNL1        0.0233
     16 H           1.6936   11.6555   10.9008 H       1  UNL1        0.0233
     17 C           3.3083   10.2717   11.2195 C.3     1  UNL1       -0.0248
     18 H           3.9307   10.6678   10.4061 H       1  UNL1        0.0314
     19 C           3.3343    5.9669    6.2750 C.3     1  UNL1       -0.0248
     20 H           4.2230    6.6116    6.2189 H       1  UNL1        0.0314
     21 C           2.9705    5.5293    4.8594 C.3     1  UNL1       -0.0609
     22 H           3.8017    4.9873    4.4173 H       1  UNL1        0.0233
     23 H           2.0998    4.8771    4.8550 H       1  UNL1        0.0233
     24 H           2.7589    6.3931    4.2352 H       1  UNL1        0.0233
     25 C           3.7414   10.9345   12.5243 C.3     1  UNL1       -0.0609
     26 H           4.7550   10.6446   12.7863 H       1  UNL1        0.0233
     27 H           3.7163   12.0146   12.4105 H       1  UNL1        0.0233
     28 H           3.0802   10.6658   13.3452 H       1  UNL1        0.0233
     29 C           2.2156    6.8429    6.8694 C.3     1  UNL1        0.0649
     30 H           2.0495    7.6922    6.1999 H       1  UNL1        0.0537
     31 C           2.7877    7.9563   12.3117 C.3     1  UNL1        0.1099
     32 H           3.4320    7.2443   12.8412 H       1  UNL1        0.0716
     33 H           2.2995    8.5973   13.0464 H       1  UNL1        0.0716
     34 C           3.6583    4.7644    7.1581 C.3     1  UNL1       -0.0609
     35 H           4.4940    4.2131    6.7347 H       1  UNL1        0.0233
     36 H           3.9377    5.0846    8.1595 H       1  UNL1        0.0233
     37 H           2.8111    4.0863    7.2354 H       1  UNL1        0.0233
@<TRIPOS>BOND
     1    24    21    1
     2    22    21    1
     3    23    21    1
     4    21    19    1
     5    30    29    1
     6    20    19    1
     7    19    29    1
     8    19    34    1
     9    11     9    1
    10    35    34    1
    11    10     9    1
    12    29     9    1
    13    29     4    1
    14    34    37    1
    15    34    36    1
    16     9     1    1
    17     4     5    1
    18     4    12    1
    19     1    12    1
    20     5     3    1
    21    12     8    2
    22    14    13    1
    23     3     8    1
    24     3     6    1
    25     8     2    1
    26    18    17    1
    27    16    13    1
    28    13    17    1
    29    13    15    1
    30    17     6    1
    31    17    25    1
    32     6     7    1
    33     6    31    1
    34     2    31    1
    35    31    32    1
    36    31    33    1
    37    27    25    1
    38    25    26    1
    39    25    28    1
