@<TRIPOS>MOLECULE
2
 16 15 0 0 0
SMALL
GASTEIGER

@<TRIPOS>ATOM
      1 SI          6.5501    7.0613    2.5126 Si      1  UNL1        0.0000
      2 C           4.9939    8.0165    2.9699 C.3     1  UNL1        0.0000
      3 H           4.6560    8.5884    2.0903 H       1  UNL1        0.0000
      4 H           5.3012    8.7914    3.6915 H       1  UNL1        0.0000
      5 C           6.1052    5.2240    2.1323 C.3     1  UNL1        0.0000
      6 H           6.9863    4.6359    1.8940 H       1  UNL1        0.0000
      7 H           5.6245    4.7683    2.9986 H       1  UNL1        0.0000
      8 H           5.4226    5.1416    1.2907 H       1  UNL1        0.0000
      9 C           7.7808    7.0096    3.9779 C.3     1  UNL1        0.0000
     10 H           8.6056    6.3280    3.7940 H       1  UNL1        0.0000
     11 H           8.2032    7.9905    4.1706 H       1  UNL1        0.0000
     12 H           7.2778    6.6853    4.8847 H       1  UNL1        0.0000
     13 C           7.5057    7.6932    0.9705 C.3     1  UNL1        0.0000
     14 H           8.3696    7.0750    0.7457 H       1  UNL1        0.0000
     15 H           6.8697    7.6973    0.0900 H       1  UNL1        0.0000
     16 H           7.8595    8.7086    1.1195 H       1  UNL1        0.0000
@<TRIPOS>BOND
     1    15    13    1
     2    14    13    1
     3    13    16    1
     4    13     1    1
     5     8     5    1
     6     6     5    1
     7     3     2    1
     8     5     1    1
     9     5     7    1
    10     1     2    1
    11     1     9    1
    12     2     4    1
    13    10     9    1
    14     9    11    1
    15     9    12    1
