@<TRIPOS>MOLECULE
2
 16 15 0 0 0
SMALL
GASTEIGER

@<TRIPOS>ATOM
      1 SI          2.2988   11.1779    6.1499 Si      1  UNL1        0.0000
      2 C           3.7403   10.0969    5.6415 C.3     1  UNL1        0.0000
      3 H           4.3224   10.6485    4.8904 H       1  UNL1        0.0000
      4 H           3.3734    9.2007    5.1243 H       1  UNL1        0.0000
      5 C           0.8275   10.1688    6.8685 C.3     1  UNL1        0.0000
      6 H           0.0486   10.8280    7.2385 H       1  UNL1        0.0000
      7 H           0.3773    9.5312    6.1133 H       1  UNL1        0.0000
      8 H           1.1399    9.5389    7.6956 H       1  UNL1        0.0000
      9 C           2.8839   12.3619    7.5357 C.3     1  UNL1        0.0000
     10 H           2.0947   13.0261    7.8758 H       1  UNL1        0.0000
     11 H           3.2405   11.7977    8.3953 H       1  UNL1        0.0000
     12 H           3.7054   12.9810    7.1881 H       1  UNL1        0.0000
     13 C           1.5186   12.2728    4.7784 C.3     1  UNL1        0.0000
     14 H           0.7133   12.8962    5.1560 H       1  UNL1        0.0000
     15 H           2.2665   12.9308    4.3469 H       1  UNL1        0.0000
     16 H           1.1148   11.6685    3.9714 H       1  UNL1        0.0000
@<TRIPOS>BOND
     1    16    13    1
     2    15    13    1
     3    13    14    1
     4    13     1    1
     5     3     2    1
     6     4     2    1
     7     2     1    1
     8     7     5    1
     9     1     5    1
    10     1     9    1
    11     5     6    1
    12     5     8    1
    13    12     9    1
    14     9    10    1
    15     9    11    1
