@<TRIPOS>MOLECULE
2
 22 22 0 0 0
SMALL
GASTEIGER

@<TRIPOS>ATOM
      1 N           8.7031    2.4669    1.6936 N.pl3   1  UNL1       -0.3358
      2 C           6.7186    4.3717    1.0186 C.3     1  UNL1       -0.0219
      3 H           5.9704    5.0299    0.5624 H       1  UNL1        0.0317
      4 H           7.6078    4.9764    1.2415 H       1  UNL1        0.0317
      5 C           7.0354    3.2740    0.1059 C.ar    1  UNL1       -0.0261
      6 C           8.0206    2.3098    0.4265 C.ar    1  UNL1        0.0324
      7 C           8.2825    1.2623   -0.4387 C.ar    1  UNL1       -0.0404
      8 H           9.0380    0.5291   -0.1988 H       1  UNL1        0.0636
      9 C           7.5812    1.1251   -1.6278 C.ar    1  UNL1       -0.0600
     10 H           7.7990    0.2997   -2.2885 H       1  UNL1        0.0618
     11 C           6.6142    2.0572   -1.9600 C.ar    1  UNL1       -0.0614
     12 H           6.0698    1.9658   -2.8889 H       1  UNL1        0.0618
     13 C           6.3559    3.1132   -1.1099 C.ar    1  UNL1       -0.0568
     14 H           5.6142    3.8508   -1.3902 H       1  UNL1        0.0621
     15 C           9.8516    3.3570    1.5131 C.3     1  UNL1        0.0004
     16 H          10.6117    2.8958    0.8654 H       1  UNL1        0.0428
     17 H          10.3065    3.5652    2.4807 H       1  UNL1        0.0428
     18 H           9.5435    4.2920    1.0522 H       1  UNL1        0.0428
     19 C           9.1958    1.2103    2.2566 C.3     1  UNL1        0.0004
     20 H           8.4242    0.4470    2.2007 H       1  UNL1        0.0428
     21 H           9.4568    1.3771    3.3019 H       1  UNL1        0.0428
     22 H          10.0943    0.8433    1.7409 H       1  UNL1        0.0428
@<TRIPOS>BOND
     1    12    11    1
     2    10     9    1
     3    11     9   ar
     4    11    13   ar
     5     9     7   ar
     6    14    13    1
     7    13     5   ar
     8     7     8    1
     9     7     6   ar
    10     5     6   ar
    11     5     2    1
    12     6     1    1
    13     3     2    1
    14    16    15    1
    15     2     4    1
    16    18    15    1
    17    15     1    1
    18    15    17    1
    19     1    19    1
    20    22    19    1
    21    20    19    1
    22    19    21    1
