@<TRIPOS>MOLECULE
2
 15 14 0 0 0
SMALL
GASTEIGER

@<TRIPOS>ATOM
      1 SI          3.7198   27.6238    5.3282 Si      1  UNL1        0.0000
      2 C           4.5523   24.6686    5.3301 C.1     1  UNL1        0.0000
      3 C           4.2404   25.8455    5.3454 C.1     1  UNL1        0.0000
      4 C           3.8296   28.2875    3.5423 C.3     1  UNL1        0.0000
      5 H           3.5278   29.3296    3.4847 H       1  UNL1        0.0000
      6 H           3.1870   27.7203    2.8759 H       1  UNL1        0.0000
      7 H           4.8429   28.2136    3.1595 H       1  UNL1        0.0000
      8 C           4.8611   28.6427    6.4745 C.3     1  UNL1        0.0000
      9 H           5.8795   28.6732    6.0986 H       1  UNL1        0.0000
     10 H           4.8935   28.2198    7.4745 H       1  UNL1        0.0000
     11 H           4.5155   29.6689    6.5641 H       1  UNL1        0.0000
     12 C           1.9224   27.7601    5.9661 C.3     1  UNL1        0.0000
     13 H           1.5982   28.7958    6.0186 H       1  UNL1        0.0000
     14 H           1.8242   27.3357    6.9611 H       1  UNL1        0.0000
     15 H           1.2299   27.2328    5.3166 H       1  UNL1        0.0000
@<TRIPOS>BOND
     1     6     4    1
     2     7     4    1
     3     5     4    1
     4     4     1    1
     5    15    12    1
     6     1     3    1
     7     1    12    1
     8     1     8    1
     9     2     3    3
    10    12    13    1
    11    12    14    1
    12     9     8    1
    13     8    11    1
    14     8    10    1
