@<TRIPOS>MOLECULE
2
 15 14 0 0 0
SMALL
GASTEIGER

@<TRIPOS>ATOM
      1 SI          3.6964   21.4176    0.7222 Si      1  UNL1        0.0000
      2 C           4.4908   22.2490    3.5691 C.1     1  UNL1        0.0000
      3 C           4.1727   21.8953    2.4482 C.1     1  UNL1        0.0000
      4 C           2.2457   22.5166    0.1477 C.3     1  UNL1        0.0000
      5 H           1.9368   22.2716   -0.8648 H       1  UNL1        0.0000
      6 H           2.5227   23.5663    0.1633 H       1  UNL1        0.0000
      7 H           1.3833   22.3969    0.7961 H       1  UNL1        0.0000
      8 C           3.1762   19.5785    0.6795 C.3     1  UNL1        0.0000
      9 H           2.9796   19.2480   -0.3367 H       1  UNL1        0.0000
     10 H           2.2742   19.4057    1.2589 H       1  UNL1        0.0000
     11 H           3.9545   18.9394    1.0866 H       1  UNL1        0.0000
     12 C           5.1969   21.6635   -0.4372 C.3     1  UNL1        0.0000
     13 H           5.4891   22.7081   -0.4909 H       1  UNL1        0.0000
     14 H           4.9744   21.3333   -1.4482 H       1  UNL1        0.0000
     15 H           6.0592   21.1005   -0.0916 H       1  UNL1        0.0000
@<TRIPOS>BOND
     1    14    12    1
     2     5     4    1
     3    13    12    1
     4    12    15    1
     5    12     1    1
     6     9     8    1
     7     4     6    1
     8     4     1    1
     9     4     7    1
    10     8     1    1
    11     8    11    1
    12     8    10    1
    13     1     3    1
    14     3     2    3
