@<TRIPOS>MOLECULE
2
 6 5 0 0 0
SMALL
GASTEIGER

@<TRIPOS>ATOM
      1 O           6.9202    2.3860    4.3902 O.2     1  UNL1       -0.2893
      2 C           5.8910    2.3122    5.0318 C.2     1  UNL1        0.1947
      3 C           5.8884    1.5769    6.3577 C.3     1  UNL1        0.0015
      4 H           6.7929    0.9756    6.4525 H       1  UNL1        0.0310
      5 H           5.0043    0.9484    6.4571 H       1  UNL1        0.0310
      6 H           5.8726    2.3138    7.1607 H       1  UNL1        0.0310
@<TRIPOS>BOND
     1     1     2    2
     2     2     3    1
     3     3     4    1
     4     3     5    1
     5     3     6    1
