@<TRIPOS>MOLECULE
2
 16 15 0 0 0
SMALL
GASTEIGER

@<TRIPOS>ATOM
      1 SI          2.5001   -0.6136   10.8759 Si      1  UNL1        0.0000
      2 C           3.4936    0.8114   10.1147 C.3     1  UNL1        0.0000
      3 H           2.8039    1.4165    9.5243 H       1  UNL1        0.0000
      4 H           4.2233    0.4339    9.3966 H       1  UNL1        0.0000
      5 C           3.1840   -2.3690   10.5206 C.3     1  UNL1        0.0000
      6 H           3.4233   -2.4982    9.4699 H       1  UNL1        0.0000
      7 H           2.4435   -3.1194   10.7798 H       1  UNL1        0.0000
      8 H           4.0797   -2.5902   11.0917 H       1  UNL1        0.0000
      9 C           0.7100   -0.6193   10.1937 C.3     1  UNL1        0.0000
     10 H           0.2060    0.3262   10.3654 H       1  UNL1        0.0000
     11 H           0.1143   -1.3973   10.6614 H       1  UNL1        0.0000
     12 H           0.7044   -0.8020    9.1237 H       1  UNL1        0.0000
     13 C           2.3940   -0.4445   12.7844 C.3     1  UNL1        0.0000
     14 H           3.1923   -0.9812   13.2879 H       1  UNL1        0.0000
     15 H           1.4565   -0.8427   13.1592 H       1  UNL1        0.0000
     16 H           2.4448    0.5976   13.1023 H       1  UNL1        0.0000
@<TRIPOS>BOND
     1    12     9    1
     2     4     2    1
     3     6     5    1
     4     3     2    1
     5     2     1    1
     6     9    10    1
     7     9    11    1
     8     9     1    1
     9     5     7    1
    10     5     1    1
    11     5     8    1
    12     1    13    1
    13    13    16    1
    14    13    15    1
    15    13    14    1
