@<TRIPOS>MOLECULE
6
 68 73 0 0 0
SMALL
GASTEIGER

@<TRIPOS>ATOM
      1 SI         -6.7604   -1.0181    4.7017 Si      1  UNL1        0.0000
      2 O          -7.1703    0.5467    4.4643 O.3     1  UNL1        0.0000
      3 N          -9.0983    2.3739    2.7345 N.pl3   1  UNL1        0.5000
      4 N         -11.0641    1.5684    2.2126 N.2     1  UNL1        0.5000
      5 N         -10.5693    2.3322    1.2104 N.pl3   1  UNL1        0.0000
      6 C          -9.3499    2.8480    1.4887 C.3     1  UNL1        0.0000
      7 C         -11.3621    2.5580    0.0762 C.ar    1  UNL1        0.0000
      8 C         -11.4037    3.8170   -0.5112 C.ar    1  UNL1        0.0000
      9 H         -10.8319    4.6264   -0.0785 H       1  UNL1        0.0000
     10 C         -12.1928    4.0196   -1.6279 C.ar    1  UNL1        0.0000
     11 H         -12.2293    4.9969   -2.0856 H       1  UNL1        0.0000
     12 C         -12.9501    2.9822   -2.1477 C.ar    1  UNL1        0.0000
     13 H         -13.5667    3.1467   -3.0187 H       1  UNL1        0.0000
     14 C         -12.9279    1.7374   -1.5400 C.ar    1  UNL1        0.0000
     15 H         -13.5278    0.9318   -1.9360 H       1  UNL1        0.0000
     16 C         -12.1378    1.5204   -0.4265 C.ar    1  UNL1        0.0000
     17 H         -12.1143    0.5596    0.0634 H       1  UNL1        0.0000
     18 C         -10.1653    1.6244    3.1492 C.2     1  UNL1        0.0000
     19 C         -10.2186    1.1066    4.4956 C.ar    1  UNL1        0.0000
     20 C         -11.0864    0.0864    4.8674 C.ar    1  UNL1        0.0000
     21 H         -11.7264   -0.3551    4.1189 H       1  UNL1        0.0000
     22 C         -11.1182   -0.3381    6.1820 C.ar    1  UNL1        0.0000
     23 H         -11.7873   -1.1319    6.4777 H       1  UNL1        0.0000
     24 C         -10.2929    0.2614    7.1202 C.ar    1  UNL1        0.0000
     25 H         -10.3223   -0.0669    8.1489 H       1  UNL1        0.0000
     26 C          -9.4306    1.2802    6.7486 C.ar    1  UNL1        0.0000
     27 H          -8.7939    1.7453    7.4870 H       1  UNL1        0.0000
     28 C          -9.3735    1.7111    5.4341 C.ar    1  UNL1        0.0000
     29 C          -8.4789    2.8358    4.9994 C.3     1  UNL1        0.0000
     30 H          -7.6351    2.9388    5.6812 H       1  UNL1        0.0000
     31 H          -9.0488    3.7716    5.0170 H       1  UNL1        0.0000
     32 C          -7.9619    2.6385    3.5698 C.3     1  UNL1        0.0000
     33 H          -7.5355    3.5792    3.2093 H       1  UNL1        0.0000
     34 C          -6.8264    1.5491    3.5376 C.3     1  UNL1        0.0000
     35 C          -6.6390    0.8952    2.1749 C.ar    1  UNL1        0.0000
     36 C          -5.4234    0.9029    1.5002 C.ar    1  UNL1        0.0000
     37 H          -4.5774    1.4342    1.9050 H       1  UNL1        0.0000
     38 C          -5.2685    0.2119    0.3100 C.ar    1  UNL1        0.0000
     39 H          -4.3126    0.2277   -0.1926 H       1  UNL1        0.0000
     40 C          -6.3241   -0.4996   -0.2321 C.ar    1  UNL1        0.0000
     41 H          -6.2039   -1.0304   -1.1644 H       1  UNL1        0.0000
     42 C          -7.5290   -0.5403    0.4467 C.ar    1  UNL1        0.0000
     43 H          -8.3560   -1.1112    0.0507 H       1  UNL1        0.0000
     44 C          -7.6772    0.1351    1.6444 C.ar    1  UNL1        0.0000
     45 H          -8.6011    0.0305    2.1886 H       1  UNL1        0.0000
     46 C          -5.5790    2.3033    3.9819 C.ar    1  UNL1        0.0000
     47 C          -4.9242    1.9987    5.1637 C.ar    1  UNL1        0.0000
     48 H          -5.2936    1.1989    5.7838 H       1  UNL1        0.0000
     49 C          -3.8087    2.7205    5.5576 C.ar    1  UNL1        0.0000
     50 H          -3.3103    2.4691    6.4822 H       1  UNL1        0.0000
     51 C          -3.3385    3.7597    4.7766 C.ar    1  UNL1        0.0000
     52 H          -2.4698    4.3226    5.0838 H       1  UNL1        0.0000
     53 C          -3.9953    4.0792    3.5989 C.ar    1  UNL1        0.0000
     54 H          -3.6395    4.8953    2.9872 H       1  UNL1        0.0000
     55 C          -5.1081    3.3611    3.2057 C.ar    1  UNL1        0.0000
     56 H          -5.6140    3.6170    2.2857 H       1  UNL1        0.0000
     57 C          -8.1175   -2.1785    4.0326 C.3     1  UNL1        0.0000
     58 H          -8.0423   -3.1574    4.4947 H       1  UNL1        0.0000
     59 H          -8.0494   -2.3215    2.9585 H       1  UNL1        0.0000
     60 H          -9.1066   -1.7889    4.2571 H       1  UNL1        0.0000
     61 C          -6.7126   -1.1859    6.5984 C.3     1  UNL1        0.0000
     62 H          -5.8290   -0.7359    7.0406 H       1  UNL1        0.0000
     63 H          -6.7147   -2.2332    6.8802 H       1  UNL1        0.0000
     64 H          -7.5829   -0.7217    7.0501 H       1  UNL1        0.0000
     65 C          -5.0773   -1.5035    3.9436 C.3     1  UNL1        0.0000
     66 H          -4.3200   -0.7500    4.1424 H       1  UNL1        0.0000
     67 H          -5.1455   -1.6175    2.8654 H       1  UNL1        0.0000
     68 H          -4.7182   -2.4440    4.3486 H       1  UNL1        0.0000
@<TRIPOS>BOND
     1    13    12    1
     2    12    10   ar
     3    12    14   ar
     4    11    10    1
     5    15    14    1
     6    10     8   ar
     7    14    16   ar
     8    41    40    1
     9     8     9    1
    10     8     7   ar
    11    16    17    1
    12    16     7   ar
    13    40    38   ar
    14    40    42   ar
    15    39    38    1
    16    43    42    1
    17     7     5    1
    18    38    36   ar
    19    42    44   ar
    20     5     6    1
    21     5     4    1
    22     6     3    1
    23    36    37    1
    24    36    35   ar
    25    44    35   ar
    26    44    45    1
    27    35    34    1
    28     4    18    2
    29    56    55    1
    30     3    18    1
    31     3    32    1
    32    67    65    1
    33    59    57    1
    34    54    53    1
    35    18    19    1
    36    55    53   ar
    37    55    46   ar
    38    33    32    1
    39    34    32    1
    40    34    46    1
    41    34     2    1
    42    32    29    1
    43    53    51   ar
    44    65    66    1
    45    65    68    1
    46    65     1    1
    47    46    47   ar
    48    57    60    1
    49    57    58    1
    50    57     1    1
    51    21    20    1
    52     2     1    1
    53    19    20   ar
    54    19    28   ar
    55     1    61    1
    56    51    52    1
    57    51    49   ar
    58    20    22   ar
    59    29    31    1
    60    29    28    1
    61    29    30    1
    62    47    49   ar
    63    47    48    1
    64    28    26   ar
    65    49    50    1
    66    22    23    1
    67    22    24   ar
    68    61    63    1
    69    61    62    1
    70    61    64    1
    71    26    24   ar
    72    26    27    1
    73    24    25    1
