@<TRIPOS>MOLECULE
1
 4 3 0 0 0
SMALL
GASTEIGER

@<TRIPOS>ATOM
      1 C          13.0434    6.5396    2.4466 C.3     1  UNL1       -0.0681
      2 H          12.7523    6.5342    1.3968 H       1  UNL1        0.0227
      3 H          14.1081    6.3057    2.4581 H       1  UNL1        0.0227
      4 H          12.9519    7.5787    2.7808 H       1  UNL1        0.0227
@<TRIPOS>BOND
     1     2     1    1
     2     1     3    1
     3     1     4    1
