@<TRIPOS>MOLECULE
2
 16 15 0 0 0
SMALL
GASTEIGER

@<TRIPOS>ATOM
      1 SI          3.6545    6.4720    9.0589 Si      1  UNL1        0.0000
      2 C           3.2411    7.4371    7.4919 C.3     1  UNL1        0.0000
      3 H           3.4930    6.7861    6.6382 H       1  UNL1        0.0000
      4 H           3.9560    8.2766    7.4184 H       1  UNL1        0.0000
      5 C           2.2163    6.5890   10.3310 C.3     1  UNL1        0.0000
      6 H           2.3292    5.8734   11.1403 H       1  UNL1        0.0000
      7 H           2.1616    7.5774   10.7796 H       1  UNL1        0.0000
      8 H           1.2587    6.3961    9.8481 H       1  UNL1        0.0000
      9 C           3.9308    4.5977    8.7360 C.3     1  UNL1        0.0000
     10 H           4.2389    4.0804    9.6395 H       1  UNL1        0.0000
     11 H           3.0238    4.1159    8.3828 H       1  UNL1        0.0000
     12 H           4.7016    4.4336    7.9888 H       1  UNL1        0.0000
     13 C           5.2385    7.0671    9.9675 C.3     1  UNL1        0.0000
     14 H           5.4042    6.5132   10.8866 H       1  UNL1        0.0000
     15 H           6.1202    6.9408    9.3465 H       1  UNL1        0.0000
     16 H           5.1731    8.1185   10.2297 H       1  UNL1        0.0000
@<TRIPOS>BOND
     1     3     2    1
     2     4     2    1
     3     2     1    1
     4    12     9    1
     5    11     9    1
     6     9     1    1
     7     9    10    1
     8     1    13    1
     9     1     5    1
    10    15    13    1
    11     8     5    1
    12    13    16    1
    13    13    14    1
    14     5     7    1
    15     5     6    1
