@<TRIPOS>MOLECULE
2
 16 15 0 0 0
SMALL
GASTEIGER

@<TRIPOS>ATOM
      1 SI         -2.1576    9.5917    8.2173 Si      1  UNL1        0.0000
      2 C          -0.8945    8.1849    8.1360 C.3     1  UNL1        0.0000
      3 H          -1.4516    7.3143    7.7499 H       1  UNL1        0.0000
      4 H          -0.6574    7.9187    9.1821 H       1  UNL1        0.0000
      5 C          -2.1844   10.4429    9.9389 C.3     1  UNL1        0.0000
      6 H          -2.8669   11.2873    9.9519 H       1  UNL1        0.0000
      7 H          -2.4997    9.7551   10.7176 H       1  UNL1        0.0000
      8 H          -1.2012   10.8152   10.2130 H       1  UNL1        0.0000
      9 C          -3.9537    8.9722    7.9184 C.3     1  UNL1        0.0000
     10 H          -4.6802    9.7675    8.0548 H       1  UNL1        0.0000
     11 H          -4.0759    8.5923    6.9081 H       1  UNL1        0.0000
     12 H          -4.2162    8.1702    8.6021 H       1  UNL1        0.0000
     13 C          -1.8739   10.9868    6.9248 C.3     1  UNL1        0.0000
     14 H          -2.8131   11.4247    6.5988 H       1  UNL1        0.0000
     15 H          -1.2738   11.7923    7.3369 H       1  UNL1        0.0000
     16 H          -1.3574   10.6231    6.0392 H       1  UNL1        0.0000
@<TRIPOS>BOND
     1    16    13    1
     2    14    13    1
     3    11     9    1
     4    13    15    1
     5    13     1    1
     6     3     2    1
     7     9    10    1
     8     9     1    1
     9     9    12    1
    10     2     1    1
    11     2     4    1
    12     1     5    1
    13     5     6    1
    14     5     8    1
    15     5     7    1
