@<TRIPOS>MOLECULE
2
 16 15 0 0 0
SMALL
GASTEIGER

@<TRIPOS>ATOM
      1 SI          2.3725   11.9168    3.0567 Si      1  UNL1        0.0000
      2 C           2.1884   10.0825    3.4630 C.3     1  UNL1        0.0000
      3 H           1.5623    9.6554    2.6602 H       1  UNL1        0.0000
      4 H           1.5470   10.0237    4.3613 H       1  UNL1        0.0000
      5 C           3.1351   12.8852    4.5253 C.3     1  UNL1        0.0000
      6 H           2.8408   13.9300    4.5106 H       1  UNL1        0.0000
      7 H           2.8258   12.4712    5.4806 H       1  UNL1        0.0000
      8 H           4.2180   12.8522    4.4796 H       1  UNL1        0.0000
      9 C           0.7147   12.7956    2.6327 C.3     1  UNL1        0.0000
     10 H           0.8666   13.8329    2.3489 H       1  UNL1        0.0000
     11 H           0.2112   12.3032    1.8058 H       1  UNL1        0.0000
     12 H           0.0343   12.7843    3.4791 H       1  UNL1        0.0000
     13 C           3.5191   12.1859    1.5421 C.3     1  UNL1        0.0000
     14 H           3.7878   13.2328    1.4372 H       1  UNL1        0.0000
     15 H           4.4433   11.6213    1.6446 H       1  UNL1        0.0000
     16 H           3.0409   11.8819    0.6156 H       1  UNL1        0.0000
@<TRIPOS>BOND
     1    16    13    1
     2    14    13    1
     3    13    15    1
     4    13     1    1
     5    11     9    1
     6    10     9    1
     7     9     1    1
     8     9    12    1
     9     3     2    1
    10     1     2    1
    11     1     5    1
    12     2     4    1
    13     8     5    1
    14     6     5    1
    15     5     7    1
