@<TRIPOS>MOLECULE
2
 16 15 0 0 0
SMALL
GASTEIGER

@<TRIPOS>ATOM
      1 SI          2.4642    7.2514    6.8058 Si      1  UNL1        0.0000
      2 C           3.9565    7.2409    5.6566 C.3     1  UNL1        0.0000
      3 H           4.0975    6.2027    5.3122 H       1  UNL1        0.0000
      4 H           4.8369    7.4449    6.2902 H       1  UNL1        0.0000
      5 C           2.1781    9.0054    7.5270 C.3     1  UNL1        0.0000
      6 H           1.1933    9.1002    7.9734 H       1  UNL1        0.0000
      7 H           2.9068    9.2322    8.2977 H       1  UNL1        0.0000
      8 H           2.2645    9.7615    6.7487 H       1  UNL1        0.0000
      9 C           0.8626    6.7832    5.8554 C.3     1  UNL1        0.0000
     10 H          -0.0206    6.9262    6.4701 H       1  UNL1        0.0000
     11 H           0.7528    7.4020    4.9680 H       1  UNL1        0.0000
     12 H           0.8706    5.7437    5.5416 H       1  UNL1        0.0000
     13 C           2.5709    6.0592    8.3102 C.3     1  UNL1        0.0000
     14 H           1.7025    6.1395    8.9574 H       1  UNL1        0.0000
     15 H           2.6450    5.0237    7.9905 H       1  UNL1        0.0000
     16 H           3.4490    6.2764    8.9116 H       1  UNL1        0.0000
@<TRIPOS>BOND
     1    11     9    1
     2     3     2    1
     3    12     9    1
     4     2     4    1
     5     2     1    1
     6     9    10    1
     7     9     1    1
     8     8     5    1
     9     1     5    1
    10     1    13    1
    11     5     6    1
    12     5     7    1
    13    15    13    1
    14    13    16    1
    15    13    14    1
