@<TRIPOS>MOLECULE
2
 16 15 0 0 0
SMALL
GASTEIGER

@<TRIPOS>ATOM
      1 SI         12.5428   -0.1482    5.8631 Si      1  UNL1        0.0000
      2 C          11.5186    0.8421    7.0953 C.3     1  UNL1        0.0000
      3 H          10.9876    0.1130    7.7300 H       1  UNL1        0.0000
      4 H          10.7251    1.3335    6.5032 H       1  UNL1        0.0000
      5 C          13.3657   -1.6821    6.6775 C.3     1  UNL1        0.0000
      6 H          13.9471   -2.2452    5.9542 H       1  UNL1        0.0000
      7 H          14.0388   -1.3909    7.4782 H       1  UNL1        0.0000
      8 H          12.6248   -2.3586    7.0934 H       1  UNL1        0.0000
      9 C          11.5269   -0.8222    4.3774 C.3     1  UNL1        0.0000
     10 H          12.1497   -1.3468    3.6589 H       1  UNL1        0.0000
     11 H          10.7540   -1.5115    4.7046 H       1  UNL1        0.0000
     12 H          11.0353   -0.0074    3.8535 H       1  UNL1        0.0000
     13 C          13.9653    0.8946    5.1130 C.3     1  UNL1        0.0000
     14 H          14.5411    0.3285    4.3872 H       1  UNL1        0.0000
     15 H          13.5704    1.7684    4.6056 H       1  UNL1        0.0000
     16 H          14.6498    1.2392    5.8827 H       1  UNL1        0.0000
@<TRIPOS>BOND
     1    10     9    1
     2    12     9    1
     3     9    11    1
     4     9     1    1
     5    14    13    1
     6    15    13    1
     7    13     1    1
     8    13    16    1
     9     1     5    1
    10     1     2    1
    11     6     5    1
    12     4     2    1
    13     5     8    1
    14     5     7    1
    15     2     3    1
