@<TRIPOS>MOLECULE
2
 16 15 0 0 0
SMALL
GASTEIGER

@<TRIPOS>ATOM
      1 SI         15.2565    4.6018    9.1721 Si      1  UNL1        0.0000
      2 C          14.5291    3.1360    8.2366 C.3     1  UNL1        0.0000
      3 H          15.2273    2.2908    8.3468 H       1  UNL1        0.0000
      4 H          14.5874    3.3983    7.1645 H       1  UNL1        0.0000
      5 C          13.8752    5.8441    9.6574 C.3     1  UNL1        0.0000
      6 H          14.2129    6.5628   10.3983 H       1  UNL1        0.0000
      7 H          13.5422    6.4094    8.7912 H       1  UNL1        0.0000
      8 H          13.0039    5.3318   10.0641 H       1  UNL1        0.0000
      9 C          16.1483    4.0205   10.7694 C.3     1  UNL1        0.0000
     10 H          16.4116    4.8594   11.4059 H       1  UNL1        0.0000
     11 H          15.5251    3.3491   11.3508 H       1  UNL1        0.0000
     12 H          17.0656    3.4910   10.5311 H       1  UNL1        0.0000
     13 C          16.5632    5.6203    8.1963 C.3     1  UNL1        0.0000
     14 H          16.9524    6.4482    8.7815 H       1  UNL1        0.0000
     15 H          17.4071    5.0030    7.9027 H       1  UNL1        0.0000
     16 H          16.1349    6.0365    7.2887 H       1  UNL1        0.0000
@<TRIPOS>BOND
     1     4     2    1
     2    16    13    1
     3    15    13    1
     4    13    14    1
     5    13     1    1
     6     2     3    1
     7     2     1    1
     8     7     5    1
     9     1     5    1
    10     1     9    1
    11     5     8    1
    12     5     6    1
    13    12     9    1
    14     9    11    1
    15     9    10    1
