@<TRIPOS>MOLECULE
2
 16 15 0 0 0
SMALL
GASTEIGER

@<TRIPOS>ATOM
      1 SI         -2.7948    1.3068    2.7878 Si      1  UNL1        0.0000
      2 C          -1.0939    0.6216    2.2995 C.3     1  UNL1        0.0000
      3 C          -3.3298    0.6265    4.4996 C.3     1  UNL1        0.0000
      4 C          -4.1194    0.7298    1.5267 C.3     1  UNL1        0.0000
      5 C          -2.9308    3.2240    2.8449 C.3     1  UNL1        0.0000
      6 H          -1.1177    0.3627    1.2323 H       1  UNL1        0.0000
      7 H          -0.9600   -0.3329    2.8264 H       1  UNL1        0.0000
      8 H          -3.2889   -0.4587    4.5141 H       1  UNL1        0.0000
      9 H          -4.3519    0.9138    4.7262 H       1  UNL1        0.0000
     10 H          -2.7037    0.9868    5.3093 H       1  UNL1        0.0000
     11 H          -3.8728    1.0464    0.5172 H       1  UNL1        0.0000
     12 H          -5.0975    1.1358    1.7671 H       1  UNL1        0.0000
     13 H          -4.2088   -0.3516    1.5156 H       1  UNL1        0.0000
     14 H          -3.7528    3.5231    3.4890 H       1  UNL1        0.0000
     15 H          -3.1322    3.6372    1.8613 H       1  UNL1        0.0000
     16 H          -2.0285    3.6972    3.2220 H       1  UNL1        0.0000
@<TRIPOS>BOND
     1    11     4    1
     2     6     2    1
     3    13     4    1
     4     4    12    1
     5     4     1    1
     6    15     5    1
     7     2     1    1
     8     2     7    1
     9     1     5    1
    10     1     3    1
    11     5    16    1
    12     5    14    1
    13     3     8    1
    14     3     9    1
    15     3    10    1
