@<TRIPOS>MOLECULE
1
 4 3 0 0 0
SMALL
GASTEIGER

@<TRIPOS>ATOM
      1 C           6.3925    7.8811    7.3060 C.3     1  UNL1       -0.0681
      2 H           6.5200    7.1171    6.5311 H       1  UNL1        0.0227
      3 H           6.8108    8.8119    6.9027 H       1  UNL1        0.0227
      4 H           7.0447    7.5932    8.1400 H       1  UNL1        0.0227
@<TRIPOS>BOND
     1     2     1    1
     2     3     1    1
     3     1     4    1
