@<TRIPOS>MOLECULE
1
 4 3 0 0 0
SMALL
GASTEIGER

@<TRIPOS>ATOM
      1 C           4.2664   10.1384    9.0261 C.3     1  UNL1       -0.0681
      2 H           5.1506   10.7269    8.7476 H       1  UNL1        0.0227
      3 H           3.3898   10.7507    8.7749 H       1  UNL1        0.0227
      4 H           4.2842   10.0519   10.1187 H       1  UNL1        0.0227
@<TRIPOS>BOND
     1     2     1    1
     2     3     1    1
     3     1     4    1
