@<TRIPOS>MOLECULE
1
 4 3 0 0 0
SMALL
GASTEIGER

@<TRIPOS>ATOM
      1 C           4.3259    7.0026    9.9085 C.3     1  UNL1       -0.0681
      2 H           3.5088    7.3211   10.5689 H       1  UNL1        0.0227
      3 H           4.2939    5.9104    9.8728 H       1  UNL1        0.0227
      4 H           5.2542    7.2668   10.4323 H       1  UNL1        0.0227
@<TRIPOS>BOND
     1     3     1    1
     2     1     4    1
     3     1     2    1
