@<TRIPOS>MOLECULE
2
 16 15 0 0 0
SMALL
GASTEIGER

@<TRIPOS>ATOM
      1 SI          0.1501    3.4334    2.7163 Si      1  UNL1        0.0000
      2 C           0.5524    1.5712    2.5305 C.3     1  UNL1        0.0000
      3 C          -1.7137    3.7486    2.4104 C.3     1  UNL1        0.0000
      4 C           0.5422    4.0886    4.4797 C.3     1  UNL1        0.0000
      5 C           1.0730    4.3933    1.3237 C.3     1  UNL1        0.0000
      6 H          -0.0065    0.9907    3.2673 H       1  UNL1        0.0000
      7 H           0.2220    1.2392    1.5430 H       1  UNL1        0.0000
      8 H          -1.9439    4.8050    2.4923 H       1  UNL1        0.0000
      9 H          -2.3241    3.2215    3.1350 H       1  UNL1        0.0000
     10 H          -2.0196    3.4211    1.4228 H       1  UNL1        0.0000
     11 H           1.0506    5.0479    4.4450 H       1  UNL1        0.0000
     12 H           1.1812    3.3983    5.0311 H       1  UNL1        0.0000
     13 H          -0.3715    4.2202    5.0517 H       1  UNL1        0.0000
     14 H           1.0528    5.4618    1.5158 H       1  UNL1        0.0000
     15 H           2.1205    4.1003    1.2437 H       1  UNL1        0.0000
     16 H           0.6007    4.2296    0.3588 H       1  UNL1        0.0000
@<TRIPOS>BOND
     1    16     5    1
     2    15     5    1
     3     5    14    1
     4     5     1    1
     5    10     3    1
     6     7     2    1
     7     3     8    1
     8     3     1    1
     9     3     9    1
    10     2     1    1
    11     2     6    1
    12     1     4    1
    13    11     4    1
    14     4    12    1
    15     4    13    1
