@<TRIPOS>MOLECULE
3
 25 25 0 0 0
SMALL
GASTEIGER

@<TRIPOS>ATOM
      1 C          -0.9246    4.9178    4.3187 C.2     1  UNL1       -0.0658
      2 C          -0.5959    6.2947    4.8217 C.3     1  UNL1       -0.0430
      3 C          -0.7172    4.4272    2.9988 C.3     1  UNL1        0.0052
      4 C          -0.4735    5.2751    1.7678 C.3     1  UNL1       -0.0545
      5 C          -1.2816    3.0789    2.9527 C.3     1  UNL1       -0.0053
      6 C          -1.7679    2.3855    1.6991 C.3     1  UNL1       -0.0574
      7 C          -1.8090    2.8068    4.2420 C.3     1  UNL1        0.0052
      8 C          -2.5625    1.5689    4.6234 C.3     1  UNL1       -0.0545
      9 C          -1.5736    3.9170    5.0682 C.2     1  UNL1       -0.0658
     10 C          -1.9930    4.0134    6.5030 C.3     1  UNL1       -0.0430
     11 H          -1.5148    6.8427    5.0379 H       1  UNL1        0.0275
     12 H          -0.0084    6.2588    5.7403 H       1  UNL1        0.0275
     13 H          -0.0345    6.8639    4.0840 H       1  UNL1        0.0275
     14 H          -1.4222    5.4522    1.2539 H       1  UNL1        0.0239
     15 H          -0.0642    6.2461    2.0402 H       1  UNL1        0.0239
     16 H           0.2130    4.8101    1.0558 H       1  UNL1        0.0239
     17 H          -2.8554    2.4784    1.6414 H       1  UNL1        0.0236
     18 H          -1.3507    2.8396    0.8030 H       1  UNL1        0.0236
     19 H          -1.5356    1.3179    1.6924 H       1  UNL1        0.0236
     20 H          -3.6284    1.6934    4.4189 H       1  UNL1        0.0239
     21 H          -2.2131    0.7064    4.0571 H       1  UNL1        0.0239
     22 H          -2.4516    1.3558    5.6852 H       1  UNL1        0.0239
     23 H          -3.0753    3.9105    6.5904 H       1  UNL1        0.0275
     24 H          -1.5357    3.2222    7.1010 H       1  UNL1        0.0275
     25 H          -1.7102    4.9735    6.9268 H       1  UNL1        0.0275
@<TRIPOS>BOND
     1    18     6    1
     2    16     4    1
     3    14     4    1
     4    17     6    1
     5    19     6    1
     6     6     5    1
     7     4    15    1
     8     4     3    1
     9     5     3    1
    10     5     7    1
    11     3     1    1
    12    21     8    1
    13    13     2    1
    14     7     8    1
    15     7     9    1
    16     1     2    1
    17     1     9    2
    18    20     8    1
    19     8    22    1
    20     2    11    1
    21     2    12    1
    22     9    10    1
    23    10    23    1
    24    10    25    1
    25    10    24    1
