@<TRIPOS>MOLECULE
3
 28 27 0 0 0
SMALL
GASTEIGER

@<TRIPOS>ATOM
      1 SI          2.1216    2.1531    6.9308 Si      1  UNL1        0.0000
      2 SI          1.8719   -0.2598    4.7991 Si      1  UNL1        0.0000
      3 C           1.2660    1.4312    5.3995 C.3     1  UNL1        0.0000
      4 C           1.8519    4.0561    6.9322 C.3     1  UNL1        0.0000
      5 C           1.3731    1.4856    8.5608 C.3     1  UNL1        0.0000
      6 C           4.0039    1.8360    7.0130 C.3     1  UNL1        0.0000
      7 C           3.6919   -0.2013    4.2066 C.3     1  UNL1        0.0000
      8 C           1.7269   -1.6757    6.0754 C.3     1  UNL1        0.0000
      9 C           0.7616   -0.7293    3.2964 C.3     1  UNL1        0.0000
     10 H           0.2121    1.3041    5.6768 H       1  UNL1        0.0000
     11 H           2.1650    4.5070    5.9873 H       1  UNL1        0.0000
     12 H           0.8037    4.2932    7.0858 H       1  UNL1        0.0000
     13 H           2.4116    4.5404    7.7275 H       1  UNL1        0.0000
     14 H           1.8596    1.9138    9.4314 H       1  UNL1        0.0000
     15 H           0.3148    1.7152    8.6328 H       1  UNL1        0.0000
     16 H           1.4768    0.4077    8.6216 H       1  UNL1        0.0000
     17 H           4.2048    0.7923    7.2262 H       1  UNL1        0.0000
     18 H           4.5054    2.0860    6.0852 H       1  UNL1        0.0000
     19 H           4.4615    2.4236    7.8029 H       1  UNL1        0.0000
     20 H           4.3724   -0.4136    5.0231 H       1  UNL1        0.0000
     21 H           3.8809   -0.9344    3.4285 H       1  UNL1        0.0000
     22 H           3.9530    0.7763    3.8087 H       1  UNL1        0.0000
     23 H           2.3800   -1.4960    6.9225 H       1  UNL1        0.0000
     24 H           0.7145   -1.7617    6.4554 H       1  UNL1        0.0000
     25 H           2.0001   -2.6345    5.6464 H       1  UNL1        0.0000
     26 H           0.6931    0.0949    2.5783 H       1  UNL1        0.0000
     27 H           1.1470   -1.5947    2.7662 H       1  UNL1        0.0000
     28 H          -0.2458   -0.9739    3.6214 H       1  UNL1        0.0000
@<TRIPOS>BOND
     1    26     9    1
     2    27     9    1
     3     9    28    1
     4     9     2    1
     5    21     7    1
     6    22     7    1
     7     7     2    1
     8     7    20    1
     9     2     3    1
    10     2     8    1
    11     3    10    1
    12     3     1    1
    13    25     8    1
    14    11     4    1
    15     8    24    1
    16     8    23    1
    17    18     6    1
    18     1     4    1
    19     1     6    1
    20     1     5    1
    21     4    12    1
    22     4    13    1
    23     6    17    1
    24     6    19    1
    25     5    16    1
    26     5    15    1
    27     5    14    1
