@<TRIPOS>MOLECULE
2
 16 15 0 0 0
SMALL
GASTEIGER

@<TRIPOS>ATOM
      1 SI         20.7420   -1.2866    9.3394 Si      1  UNL1        0.0000
      2 C          19.8856   -0.9718    7.6809 C.3     1  UNL1        0.0000
      3 C          22.3242   -2.3327    9.0670 C.3     1  UNL1        0.0000
      4 C          21.2737    0.4197   10.0450 C.3     1  UNL1        0.0000
      5 C          19.6747   -2.1502   10.6705 C.3     1  UNL1        0.0000
      6 H          19.8744   -1.9099    7.1097 H       1  UNL1        0.0000
      7 H          18.8332   -0.7363    7.8850 H       1  UNL1        0.0000
      8 H          22.0785   -3.3243    8.7011 H       1  UNL1        0.0000
      9 H          22.9914   -1.8706    8.3450 H       1  UNL1        0.0000
     10 H          22.8770   -2.4566    9.9925 H       1  UNL1        0.0000
     11 H          21.8867    0.9828    9.3317 H       1  UNL1        0.0000
     12 H          21.8493    0.3169   10.9598 H       1  UNL1        0.0000
     13 H          20.3980    1.0188   10.2774 H       1  UNL1        0.0000
     14 H          19.3667   -3.1400   10.3491 H       1  UNL1        0.0000
     15 H          18.7756   -1.5763   10.8712 H       1  UNL1        0.0000
     16 H          20.2110   -2.2609   11.6077 H       1  UNL1        0.0000
@<TRIPOS>BOND
     1     6     2    1
     2     2     7    1
     3     2     1    1
     4     9     3    1
     5     8     3    1
     6     3     1    1
     7     3    10    1
     8    11     4    1
     9     1     4    1
    10     1     5    1
    11     4    13    1
    12     4    12    1
    13    14     5    1
    14     5    15    1
    15     5    16    1
