@<TRIPOS>MOLECULE
3
 47 49 0 0 0
SMALL
GASTEIGER

@<TRIPOS>ATOM
      1 N           4.6232    7.2422   11.0558 N.pl3   1  UNL1       -0.2762
      2 N           5.0320    7.4467   13.1592 N.pl3   1  UNL1       -0.2762
      3 C           4.5089    6.5931   12.2437 C.3     1  UNL1        0.1959
      4 C           5.2095    8.4759   11.2343 C.2     1  UNL1        0.0131
      5 H           5.3562    9.1689   10.4335 H       1  UNL1        0.0797
      6 C           5.4667    8.6028   12.5507 C.2     1  UNL1        0.0131
      7 H           5.9543    9.3917   13.0822 H       1  UNL1        0.0797
      8 C           4.2310    6.7464    9.7997 C.ar    1  UNL1        0.0414
      9 C           5.0872    6.8368    8.6999 C.ar    1  UNL1       -0.0286
     10 C           4.6361    6.3897    7.4641 C.ar    1  UNL1       -0.0541
     11 H           5.2989    6.4639    6.6137 H       1  UNL1        0.0623
     12 C           3.3782    5.8357    7.2991 C.ar    1  UNL1       -0.0498
     13 C           2.5687    5.6992    8.4191 C.ar    1  UNL1       -0.0541
     14 H           1.5996    5.2331    8.3161 H       1  UNL1        0.0623
     15 C           2.9757    6.1381    9.6677 C.ar    1  UNL1       -0.0286
     16 C           2.1158    5.9191   10.8630 C.3     1  UNL1       -0.0379
     17 H           1.1051    5.6471   10.5665 H       1  UNL1        0.0278
     18 H           2.0755    6.8060   11.4895 H       1  UNL1        0.0278
     19 H           2.5150    5.0720   11.4594 H       1  UNL1        0.0278
     20 C           2.8989    5.3796    5.9552 C.3     1  UNL1       -0.0397
     21 H           3.7219    5.3182    5.2477 H       1  UNL1        0.0278
     22 H           2.1619    6.0812    5.5635 H       1  UNL1        0.0278
     23 H           2.4236    4.4036    6.0286 H       1  UNL1        0.0278
     24 C           6.4988    7.3377    8.8067 C.3     1  UNL1       -0.0379
     25 H           7.1307    6.7893    8.1113 H       1  UNL1        0.0278
     26 H           6.8929    7.2027    9.8106 H       1  UNL1        0.0278
     27 H           6.5647    8.3942    8.5459 H       1  UNL1        0.0278
     28 C           5.1451    7.2037   14.5390 C.ar    1  UNL1        0.0414
     29 C           5.5863    5.9467   14.9719 C.ar    1  UNL1       -0.0286
     30 C           5.8016    5.7415   16.3245 C.ar    1  UNL1       -0.0541
     31 H           6.1691    4.7817   16.6564 H       1  UNL1        0.0623
     32 C           5.5493    6.7343   17.2632 C.ar    1  UNL1       -0.0498
     33 C           5.0351    7.9397   16.8181 C.ar    1  UNL1       -0.0541
     34 H           4.7830    8.7073   17.5359 H       1  UNL1        0.0623
     35 C           4.8195    8.1937   15.4687 C.ar    1  UNL1       -0.0286
     36 C           4.1859    9.4995   15.0824 C.3     1  UNL1       -0.0379
     37 H           4.9305   10.2906   14.9900 H       1  UNL1        0.0278
     38 H           3.4832    9.8021   15.8560 H       1  UNL1        0.0278
     39 H           3.6478    9.4166   14.1416 H       1  UNL1        0.0278
     40 C           5.7817    6.4720   18.7194 C.3     1  UNL1       -0.0397
     41 H           5.0882    5.7107   19.0756 H       1  UNL1        0.0278
     42 H           5.6366    7.3743   19.3078 H       1  UNL1        0.0278
     43 H           6.7927    6.1034   18.8840 H       1  UNL1        0.0278
     44 C           5.7700    4.8293   14.0067 C.3     1  UNL1       -0.0379
     45 H           4.7810    4.4060   13.7250 H       1  UNL1        0.0278
     46 H           6.3047    4.0077   14.4759 H       1  UNL1        0.0278
     47 H           6.3076    5.1505   13.1197 H       1  UNL1        0.0278
@<TRIPOS>BOND
     1    21    20    1
     2    22    20    1
     3    20    23    1
     4    20    12    1
     5    11    10    1
     6    12    10   ar
     7    12    13   ar
     8    10     9   ar
     9    25    24    1
    10    14    13    1
    11    13    15   ar
    12    27    24    1
    13     9    24    1
    14     9     8   ar
    15    24    26    1
    16    15     8   ar
    17    15    16    1
    18     8     1    1
    19     5     4    1
    20    17    16    1
    21    16    19    1
    22    16    18    1
    23     1     4    1
    24     1     3    1
    25     4     6    2
    26     3     2    1
    27     6     7    1
    28     6     2    1
    29    47    44    1
    30     2    28    1
    31    45    44    1
    32    44    46    1
    33    44    29    1
    34    39    36    1
    35    28    29   ar
    36    28    35   ar
    37    29    30   ar
    38    37    36    1
    39    36    35    1
    40    36    38    1
    41    35    33   ar
    42    30    31    1
    43    30    32   ar
    44    33    32   ar
    45    33    34    1
    46    32    40    1
    47    40    43    1
    48    40    41    1
    49    40    42    1
