@<TRIPOS>MOLECULE
3
 27 27 0 0 0
SMALL
GASTEIGER

@<TRIPOS>ATOM
      1 N           5.8519    6.0591    5.0692 N.pl3   1  UNL1       -0.3052
      2 N           6.3700    5.9934    2.9866 N.pl3   1  UNL1       -0.3052
      3 C           5.6647    5.3237    3.9397 C.3     1  UNL1        0.1869
      4 C           6.6137    7.1830    4.8141 C.2     1  UNL1        0.0220
      5 C           6.9492    7.1353    3.5025 C.2     1  UNL1        0.0220
      6 C           6.9222    8.2339    5.8213 C.3     1  UNL1       -0.0251
      7 H           7.7849    7.9683    6.4347 H       1  UNL1        0.0290
      8 H           6.0684    8.3975    6.4748 H       1  UNL1        0.0290
      9 H           7.1416    9.1699    5.3140 H       1  UNL1        0.0290
     10 C           7.7459    8.0929    2.6885 C.3     1  UNL1       -0.0251
     11 H           8.2101    8.8291    3.3389 H       1  UNL1        0.0290
     12 H           7.1079    8.6196    1.9774 H       1  UNL1        0.0290
     13 H           8.5302    7.5836    2.1306 H       1  UNL1        0.0290
     14 C           5.3187    5.7568    6.3686 C.3     1  UNL1        0.0113
     15 H           4.6060    4.9462    6.2172 H       1  UNL1        0.0461
     16 H           4.7779    6.6298    6.7470 H       1  UNL1        0.0461
     17 C           6.3921    5.3268    7.3648 C.3     1  UNL1       -0.0493
     18 H           6.9825    4.5165    6.9487 H       1  UNL1        0.0245
     19 H           5.9200    4.9764    8.2794 H       1  UNL1        0.0245
     20 H           7.0587    6.1472    7.6171 H       1  UNL1        0.0245
     21 C           6.4428    5.6538    1.5934 C.3     1  UNL1        0.0113
     22 H           6.4488    6.5818    1.0161 H       1  UNL1        0.0461
     23 H           5.5440    5.0913    1.3545 H       1  UNL1        0.0461
     24 C           7.6688    4.8139    1.2416 C.3     1  UNL1       -0.0493
     25 H           8.5748    5.2372    1.6703 H       1  UNL1        0.0245
     26 H           7.7833    4.7648    0.1620 H       1  UNL1        0.0245
     27 H           7.5366    3.8057    1.6193 H       1  UNL1        0.0245
@<TRIPOS>BOND
     1    26    24    1
     2    22    21    1
     3    24    21    1
     4    24    27    1
     5    24    25    1
     6    23    21    1
     7    21     2    1
     8    12    10    1
     9    13    10    1
    10    10    11    1
    11    10     5    1
    12     2     5    1
    13     2     3    1
    14     5     4    2
    15     3     1    1
    16     4     1    1
    17     4     6    1
    18     1    14    1
    19     9     6    1
    20     6     7    1
    21     6     8    1
    22    15    14    1
    23    14    16    1
    24    14    17    1
    25    18    17    1
    26    17    20    1
    27    17    19    1
