@<TRIPOS>MOLECULE
3
 27 27 0 0 0
SMALL
GASTEIGER

@<TRIPOS>ATOM
      1 N           4.8303    2.2189    6.2608 N.pl3   1  UNL1       -0.3052
      2 N           6.7466    2.5447    5.3551 N.pl3   1  UNL1       -0.3052
      3 C           5.4183    2.7739    5.1653 C.3     1  UNL1        0.1869
      4 C           5.7669    1.6645    7.1112 C.2     1  UNL1        0.0220
      5 C           6.9785    1.8629    6.5357 C.2     1  UNL1        0.0220
      6 C           5.4255    1.0320    8.4141 C.3     1  UNL1       -0.0251
      7 H           6.3347    0.8134    8.9677 H       1  UNL1        0.0290
      8 H           4.8782    0.0999    8.2760 H       1  UNL1        0.0290
      9 H           4.8109    1.6985    9.0188 H       1  UNL1        0.0290
     10 C           8.3389    1.4983    7.0178 C.3     1  UNL1       -0.0251
     11 H           8.2617    0.9055    7.9252 H       1  UNL1        0.0290
     12 H           8.9281    2.3891    7.2432 H       1  UNL1        0.0290
     13 H           8.8787    0.9147    6.2735 H       1  UNL1        0.0290
     14 C           3.4169    2.1741    6.5181 C.3     1  UNL1        0.0113
     15 H           2.9723    2.9505    5.8945 H       1  UNL1        0.0461
     16 H           3.2333    2.4068    7.5714 H       1  UNL1        0.0461
     17 C           2.8095    0.8211    6.1579 C.3     1  UNL1       -0.0493
     18 H           3.0623    0.5739    5.1305 H       1  UNL1        0.0245
     19 H           1.7276    0.8662    6.2524 H       1  UNL1        0.0245
     20 H           3.1809    0.0294    6.8044 H       1  UNL1        0.0245
     21 C           7.8049    2.9291    4.4624 C.3     1  UNL1        0.0113
     22 H           8.6877    3.1928    5.0527 H       1  UNL1        0.0461
     23 H           7.4620    3.8121    3.9235 H       1  UNL1        0.0461
     24 C           8.1434    1.8173    3.4721 C.3     1  UNL1       -0.0493
     25 H           8.4073    0.8978    3.9896 H       1  UNL1        0.0245
     26 H           8.9804    2.1160    2.8459 H       1  UNL1        0.0245
     27 H           7.2783    1.6177    2.8438 H       1  UNL1        0.0245
@<TRIPOS>BOND
     1    27    24    1
     2    26    24    1
     3    24    25    1
     4    24    21    1
     5    23    21    1
     6    21    22    1
     7    21     2    1
     8    18    17    1
     9     3     2    1
    10     3     1    1
    11     2     5    1
    12    15    14    1
    13    17    19    1
    14    17    14    1
    15    17    20    1
    16     1    14    1
    17     1     4    1
    18    13    10    1
    19    14    16    1
    20     5    10    1
    21     5     4    2
    22    10    12    1
    23    10    11    1
    24     4     6    1
    25     8     6    1
    26     6     7    1
    27     6     9    1
