@<TRIPOS>MOLECULE
2
 15 14 0 0 0
SMALL
GASTEIGER

@<TRIPOS>ATOM
      1 SI          0.9448   13.8884   -1.9024 Si      1  UNL1        0.0000
      2 C          -0.0966   13.1262   -0.5527 C.3     1  UNL1        0.0000
      3 C           0.2481   15.5913   -2.4540 C.3     1  UNL1        0.0000
      4 C           0.9146   12.7507   -3.4459 C.3     1  UNL1        0.0000
      5 C           2.7786   14.1818   -1.4151 C.3     1  UNL1        0.0000
      6 H          -0.7208   13.8551   -0.0123 H       1  UNL1        0.0000
      7 H           0.2568   16.3074   -1.6381 H       1  UNL1        0.0000
      8 H          -0.7759   15.5072   -2.8053 H       1  UNL1        0.0000
      9 H           0.8357   16.0120   -3.2631 H       1  UNL1        0.0000
     10 H           1.1171   11.7239   -3.1547 H       1  UNL1        0.0000
     11 H           1.6567   13.0503   -4.1796 H       1  UNL1        0.0000
     12 H          -0.0544   12.7632   -3.9364 H       1  UNL1        0.0000
     13 H           2.8853   15.0190   -0.7320 H       1  UNL1        0.0000
     14 H           3.3856   14.3934   -2.2902 H       1  UNL1        0.0000
     15 H           3.1898   13.3014   -0.9320 H       1  UNL1        0.0000
@<TRIPOS>BOND
     1    11     4    1
     2    12     4    1
     3     4    10    1
     4     4     1    1
     5     9     3    1
     6     8     3    1
     7     3     1    1
     8     3     7    1
     9    14     5    1
    10     1     5    1
    11     1     2    1
    12     5    15    1
    13     5    13    1
    14     2     6    1
