@<TRIPOS>MOLECULE
2
 16 15 0 0 0
SMALL
GASTEIGER

@<TRIPOS>ATOM
      1 SI          0.6830   12.3743    3.1223 Si      1  UNL1        0.0000
      2 C           0.0606   10.7859    2.2661 C.3     1  UNL1        0.0000
      3 C           2.1238   13.2471    2.2134 C.3     1  UNL1        0.0000
      4 C           1.2839   11.9939    4.9066 C.3     1  UNL1        0.0000
      5 C          -0.7355   13.6584    3.3231 C.3     1  UNL1        0.0000
      6 H           0.7652    9.9734    2.4973 H       1  UNL1        0.0000
      7 H          -0.8956   10.4999    2.7227 H       1  UNL1        0.0000
      8 H           1.8160   13.5949    1.2270 H       1  UNL1        0.0000
      9 H           2.9663   12.5766    2.0725 H       1  UNL1        0.0000
     10 H           2.4813   14.1006    2.7837 H       1  UNL1        0.0000
     11 H           2.1261   11.3088    4.9046 H       1  UNL1        0.0000
     12 H           0.4993   11.5440    5.5079 H       1  UNL1        0.0000
     13 H           1.6025   12.8994    5.4126 H       1  UNL1        0.0000
     14 H          -1.0986   14.0201    2.3660 H       1  UNL1        0.0000
     15 H          -0.3777   14.5182    3.8799 H       1  UNL1        0.0000
     16 H          -1.5789   13.2510    3.8731 H       1  UNL1        0.0000
@<TRIPOS>BOND
     1     8     3    1
     2     9     3    1
     3     3    10    1
     4     3     1    1
     5     2     6    1
     6     2     7    1
     7     2     1    1
     8    14     5    1
     9     1     5    1
    10     1     4    1
    11     5    16    1
    12     5    15    1
    13    11     4    1
    14     4    13    1
    15     4    12    1
