@<TRIPOS>MOLECULE
2
 16 15 0 0 0
SMALL
GASTEIGER

@<TRIPOS>ATOM
      1 SI          6.2415    1.1505    1.6765 Si      1  UNL1        0.0000
      2 C           6.6954    2.6948    2.6790 C.3     1  UNL1        0.0000
      3 C           6.0902    1.6328   -0.1625 C.3     1  UNL1        0.0000
      4 C           4.5922    0.4232    2.3198 C.3     1  UNL1        0.0000
      5 C           7.5897   -0.1981    1.8717 C.3     1  UNL1        0.0000
      6 H           7.0660    1.8012   -0.6064 H       1  UNL1        0.0000
      7 H           5.5971    0.8599   -0.7430 H       1  UNL1        0.0000
      8 H           5.5161    2.5498   -0.2600 H       1  UNL1        0.0000
      9 H           3.8478    1.2057    2.4379 H       1  UNL1        0.0000
     10 H           4.1913   -0.3071    1.6244 H       1  UNL1        0.0000
     11 H           4.7170   -0.0808    3.2741 H       1  UNL1        0.0000
     12 H           7.7061   -0.5020    2.9075 H       1  UNL1        0.0000
     13 H           7.3391   -1.0844    1.2974 H       1  UNL1        0.0000
     14 H           8.5552    0.1550    1.5238 H       1  UNL1        0.0000
     15 H           6.9220    2.4213    3.7134 H       1  UNL1        0.0000
     16 H           7.6101    3.1168    2.2545 H       1  UNL1        0.0000
@<TRIPOS>BOND
     1     7     3    1
     2     6     3    1
     3     8     3    1
     4     3     1    1
     5    13     5    1
     6    14     5    1
     7    10     4    1
     8     1     5    1
     9     1     4    1
    10     1     2    1
    11     5    12    1
    12    16     2    1
    13     4     9    1
    14     4    11    1
    15     2    15    1
