@<TRIPOS>MOLECULE
16
 25 25 0 0 0
SMALL
GASTEIGER

@<TRIPOS>ATOM
      1 C           5.0388    4.8290    6.1672 C.2     1  UNL1       -0.0477
      2 C           4.4956    3.7227    5.5517 C.2     1  UNL1       -0.0584
      3 C           3.3746    5.6206    4.8084 C.2     1  UNL1       -0.0584
      4 C           6.1435    4.8734    7.1726 C.3     1  UNL1       -0.0395
      5 C           4.7881    2.2798    5.8356 C.3     1  UNL1       -0.0424
      6 C           2.2924    6.4581    4.1973 C.3     1  UNL1       -0.0424
      7 H           5.7719    5.2449    8.1288 H       1  UNL1        0.0278
      8 H           6.5714    3.8869    7.3353 H       1  UNL1        0.0278
      9 H           4.6806    1.6668    4.9411 H       1  UNL1        0.0275
     10 H           5.7979    2.1474    6.2223 H       1  UNL1        0.0275
     11 H           4.0935    1.8992    6.5888 H       1  UNL1        0.0275
     12 H           2.4154    7.5061    4.4599 H       1  UNL1        0.0275
     13 H           2.2865    6.3736    3.1106 H       1  UNL1        0.0275
     14 H           1.3173    6.1349    4.5687 H       1  UNL1        0.0275
     15 C           4.3422    6.0035    5.7109 C.2     1  UNL1       -0.0477
     16 C           3.4895    4.1832    4.6048 C.3     1  UNL1        0.0231
     17 H           6.9399    5.5456    6.8472 H       1  UNL1        0.0278
     18 C           4.6578    7.3785    6.2024 C.3     1  UNL1       -0.0395
     19 C           2.2899    3.3465    4.2335 C.3     1  UNL1       -0.0510
     20 H           4.0492    8.1279    5.7026 H       1  UNL1        0.0278
     21 H           5.7077    7.6233    6.0299 H       1  UNL1        0.0278
     22 H           4.4767    7.4490    7.2762 H       1  UNL1        0.0278
     23 H           2.5728    2.3141    4.0244 H       1  UNL1        0.0242
     24 H           1.7836    3.7556    3.3578 H       1  UNL1        0.0242
     25 H           1.5737    3.3300    5.0592 H       1  UNL1        0.0242
@<TRIPOS>BOND
     1    13     6    1
     2    24    19    1
     3    23    19    1
     4     6    12    1
     5     6    14    1
     6     6     3    1
     7    19    16    1
     8    19    25    1
     9    16     3    1
    10    16     2    1
    11     3    15    2
    12     9     5    1
    13     2     5    1
    14     2     1    2
    15    20    18    1
    16    15     1    1
    17    15    18    1
    18     5    10    1
    19     5    11    1
    20    21    18    1
    21     1     4    1
    22    18    22    1
    23    17     4    1
    24     4     8    1
    25     4     7    1
