@<TRIPOS>MOLECULE
2
 15 14 0 0 0
SMALL
GASTEIGER

@<TRIPOS>ATOM
      1 SI          2.9385    4.2717    0.0211 Si      1  UNL1        0.0000
      2 C           4.5418    4.6291    0.9223 C.3     1  UNL1        0.0000
      3 C           3.1956    4.4465   -1.8693 C.3     1  UNL1        0.0000
      4 C           1.5188    5.4840    0.4862 C.3     1  UNL1        0.0000
      5 H           2.2842    4.2329   -2.4191 H       1  UNL1        0.0000
      6 H           3.5077    5.4526   -2.1305 H       1  UNL1        0.0000
      7 H           1.1144    5.2717    1.4709 H       1  UNL1        0.0000
      8 H           1.8515    6.5172    0.4784 H       1  UNL1        0.0000
      9 H           0.6996    5.4014   -0.2219 H       1  UNL1        0.0000
     10 H           5.2525    5.0686    0.2241 H       1  UNL1        0.0000
     11 C           2.2564    2.5086    0.3361 C.3     1  UNL1        0.0000
     12 H           3.9606    3.7647   -2.2263 H       1  UNL1        0.0000
     13 H           2.0406    2.3432    1.3861 H       1  UNL1        0.0000
     14 H           2.9615    1.7488    0.0193 H       1  UNL1        0.0000
     15 H           1.3328    2.3530   -0.2136 H       1  UNL1        0.0000
@<TRIPOS>BOND
     1     5     3    1
     2    12     3    1
     3     6     3    1
     4     3     1    1
     5     9     4    1
     6    15    11    1
     7    14    11    1
     8     1    11    1
     9     1     4    1
    10     1     2    1
    11    10     2    1
    12    11    13    1
    13     8     4    1
    14     4     7    1
