@<TRIPOS>MOLECULE
1
 16 15 0 0 0
SMALL
GASTEIGER

@<TRIPOS>ATOM
      1 C           6.7530    6.0934    3.1808 C.3     1  UNL1        0.0000
      2 SI          6.5794    7.6677    2.1355 Si      1  UNL1        0.0000
      3 H           6.6788    6.3329    4.2406 H       1  UNL1        0.0000
      4 H           7.7408    5.6539    3.0155 H       1  UNL1        0.0000
      5 C           7.4363    7.3861    0.4484 C.3     1  UNL1        0.0000
      6 C           4.7301    8.0744    1.8844 C.3     1  UNL1        0.0000
      7 C           7.4133    9.1546    3.0120 C.3     1  UNL1        0.0000
      8 H           8.5173    7.4000    0.5471 H       1  UNL1        0.0000
      9 H           7.1645    8.1561   -0.2660 H       1  UNL1        0.0000
     10 H           7.1562    6.4260    0.0256 H       1  UNL1        0.0000
     11 H           4.2205    7.2519    1.3870 H       1  UNL1        0.0000
     12 H           4.5996    8.9671    1.2806 H       1  UNL1        0.0000
     13 H           4.2367    8.2493    2.8348 H       1  UNL1        0.0000
     14 H           6.9251    9.3840    3.9541 H       1  UNL1        0.0000
     15 H           7.3652   10.0455    2.3942 H       1  UNL1        0.0000
     16 H           8.4600    8.9591    3.2232 H       1  UNL1        0.0000
@<TRIPOS>BOND
     1     9     5    1
     2    10     5    1
     3     5     8    1
     4     5     2    1
     5    12     6    1
     6    11     6    1
     7     6     2    1
     8     6    13    1
     9     2     7    1
    10     2     1    1
    11    15     7    1
    12     7    16    1
    13     7    14    1
    14     4     1    1
    15     1     3    1
