@<TRIPOS>MOLECULE
1
 16 15 0 0 0
SMALL
GASTEIGER

@<TRIPOS>ATOM
      1 C           2.6937   -1.5806    4.8876 C.3     1  UNL1       -0.0476
      2 C           3.6311   -2.0749    3.7723 C.3     1  UNL1       -0.0377
      3 C           4.9935   -1.3769    3.8869 C.3     1  UNL1       -0.0601
      4 C           2.9974   -1.7672    2.4074 C.3     1  UNL1       -0.0601
      5 C           3.8593   -3.5942    3.8698 C.3     1  UNL1       -0.0601
      6 H           1.8044   -2.2373    4.8467 H       1  UNL1        0.0271
      7 H           3.1909   -1.8322    5.8431 H       1  UNL1        0.0271
      8 H           5.4979   -1.6838    4.8031 H       1  UNL1        0.0235
      9 H           4.8737   -0.2921    3.9034 H       1  UNL1        0.0235
     10 H           5.6374   -1.6381    3.0478 H       1  UNL1        0.0235
     11 H           2.0608   -2.3163    2.2971 H       1  UNL1        0.0235
     12 H           3.6610   -2.0667    1.5964 H       1  UNL1        0.0235
     13 H           2.7896   -0.6946    2.3190 H       1  UNL1        0.0235
     14 H           4.2916   -3.8542    4.8343 H       1  UNL1        0.0235
     15 H           4.5370   -3.9385    3.0899 H       1  UNL1        0.0235
     16 H           2.9179   -4.1309    3.7647 H       1  UNL1        0.0235
@<TRIPOS>BOND
     1    12     4    1
     2    11     4    1
     3    13     4    1
     4     4     2    1
     5    10     3    1
     6    15     5    1
     7    16     5    1
     8     2     5    1
     9     2     3    1
    10     2     1    1
    11     5    14    1
    12     3     9    1
    13     3     8    1
    14     6     1    1
    15     1     7    1
