@<TRIPOS>MOLECULE
1
 16 15 0 0 0
SMALL
GASTEIGER

@<TRIPOS>ATOM
      1 C          11.4379   10.3581   10.7244 C.3     1  UNL1       -0.0476
      2 C          11.7637   11.2356    9.5073 C.3     1  UNL1       -0.0377
      3 C          13.0784   10.7724    8.8688 C.3     1  UNL1       -0.0601
      4 C          10.6492   11.1368    8.4506 C.3     1  UNL1       -0.0601
      5 C          11.8863   12.6982    9.9527 C.3     1  UNL1       -0.0601
      6 H          11.4410    9.3091   10.3772 H       1  UNL1        0.0271
      7 H          10.3863   10.5742   10.9785 H       1  UNL1        0.0271
      8 H          12.9566    9.7869    8.4204 H       1  UNL1        0.0235
      9 H          13.8651   10.7174    9.6198 H       1  UNL1        0.0235
     10 H          13.3973   11.4595    8.0863 H       1  UNL1        0.0235
     11 H           9.7086   11.5092    8.8524 H       1  UNL1        0.0235
     12 H          10.5026   10.1028    8.1432 H       1  UNL1        0.0235
     13 H          10.8972   11.7236    7.5672 H       1  UNL1        0.0235
     14 H          10.9295   13.0618   10.3280 H       1  UNL1        0.0235
     15 H          12.1882   13.3335    9.1202 H       1  UNL1        0.0235
     16 H          12.6275   12.7787   10.7514 H       1  UNL1        0.0235
@<TRIPOS>BOND
     1    13     4    1
     2    10     3    1
     3    12     4    1
     4     8     3    1
     5     4    11    1
     6     4     2    1
     7     3     2    1
     8     3     9    1
     9    15     5    1
    10     2     5    1
    11     2     1    1
    12     5    14    1
    13     5    16    1
    14     6     1    1
    15     1     7    1
