@<TRIPOS>MOLECULE
1
 16 15 0 0 0
SMALL
GASTEIGER

@<TRIPOS>ATOM
      1 C          -0.0522    0.1706    3.8060 C.3     1  UNL1       -0.0476
      2 C          -1.2308   -0.2907    4.6784 C.3     1  UNL1       -0.0377
      3 C          -2.4855   -0.4948    3.8105 C.3     1  UNL1       -0.0601
      4 C          -0.9039   -1.6150    5.3782 C.3     1  UNL1       -0.0601
      5 C          -1.5453    0.7581    5.7511 C.3     1  UNL1       -0.0601
      6 H           0.0843   -0.6038    3.0230 H       1  UNL1        0.0271
      7 H          -0.3864    1.0799    3.2746 H       1  UNL1        0.0271
      8 H          -2.7524    0.4299    3.3025 H       1  UNL1        0.0235
      9 H          -3.3344   -0.8081    4.4164 H       1  UNL1        0.0235
     10 H          -2.3072   -1.2578    3.0550 H       1  UNL1        0.0235
     11 H          -0.0560   -1.4817    6.0529 H       1  UNL1        0.0235
     12 H          -0.6611   -2.3857    4.6476 H       1  UNL1        0.0235
     13 H          -1.7577   -1.9612    5.9593 H       1  UNL1        0.0235
     14 H          -1.8435    1.6985    5.2930 H       1  UNL1        0.0235
     15 H          -0.6643    0.9272    6.3731 H       1  UNL1        0.0235
     16 H          -2.3622    0.4192    6.3871 H       1  UNL1        0.0235
@<TRIPOS>BOND
     1     6     1    1
     2    10     3    1
     3     7     1    1
     4     8     3    1
     5     1     2    1
     6     3     9    1
     7     3     2    1
     8    12     4    1
     9     2     4    1
    10     2     5    1
    11    14     5    1
    12     4    13    1
    13     4    11    1
    14     5    15    1
    15     5    16    1
