@<TRIPOS>MOLECULE
1
 16 15 0 0 0
SMALL
GASTEIGER

@<TRIPOS>ATOM
      1 C           2.1214    1.7032    6.5473 C.3     1  UNL1       -0.0476
      2 C           2.6731    1.0312    7.8163 C.3     1  UNL1       -0.0377
      3 C           4.1187    0.5637    7.5897 C.3     1  UNL1       -0.0601
      4 C           1.7950   -0.1715    8.1903 C.3     1  UNL1       -0.0601
      5 C           2.6675    2.0161    8.9999 C.3     1  UNL1       -0.0601
      6 H           1.1418    2.1273    6.8295 H       1  UNL1        0.0271
      7 H           2.7628    2.5848    6.3434 H       1  UNL1        0.0271
      8 H           4.1965   -0.0141    6.6631 H       1  UNL1        0.0235
      9 H           4.4553   -0.0567    8.4197 H       1  UNL1        0.0235
     10 H           4.7866    1.4220    7.5269 H       1  UNL1        0.0235
     11 H           0.7750    0.1534    8.3927 H       1  UNL1        0.0235
     12 H           2.1744   -0.6611    9.0864 H       1  UNL1        0.0235
     13 H           1.7758   -0.8970    7.3740 H       1  UNL1        0.0235
     14 H           1.6523    2.3390    9.2232 H       1  UNL1        0.0235
     15 H           3.2606    2.8986    8.7664 H       1  UNL1        0.0235
     16 H           3.0820    1.5539    9.8945 H       1  UNL1        0.0235
@<TRIPOS>BOND
     1     7     1    1
     2     1     6    1
     3     1     2    1
     4     8     3    1
     5    13     4    1
     6    10     3    1
     7     3     2    1
     8     3     9    1
     9     2     4    1
    10     2     5    1
    11     4    11    1
    12     4    12    1
    13    15     5    1
    14     5    14    1
    15     5    16    1
