@<TRIPOS>MOLECULE
1
 4 3 0 0 0
SMALL
GASTEIGER

@<TRIPOS>ATOM
      1 C           4.3097    1.9205   12.0524 C.3     1  UNL1       -0.0681
      2 H           5.3451    2.2104   12.2977 H       1  UNL1        0.0227
      3 H           4.3350    0.8379   11.8343 H       1  UNL1        0.0227
      4 H           3.7509    2.0237   12.9921 H       1  UNL1        0.0227
@<TRIPOS>BOND
     1     3     1    1
     2     1     2    1
     3     1     4    1
