@<TRIPOS>MOLECULE
1
 4 3 0 0 0
SMALL
GASTEIGER

@<TRIPOS>ATOM
      1 C           5.1734    4.6488   10.0533 C.3     1  UNL1       -0.0681
      2 H           6.0366    4.4521   10.7108 H       1  UNL1        0.0227
      3 H           4.7841    5.6335   10.3633 H       1  UNL1        0.0227
      4 H           5.5952    4.7883    9.0453 H       1  UNL1        0.0227
@<TRIPOS>BOND
     1     4     1    1
     2     1     3    1
     3     1     2    1
