@<TRIPOS>MOLECULE
1
 4 3 0 0 0
SMALL
GASTEIGER

@<TRIPOS>ATOM
      1 C           0.3808    4.5885    3.6836 C.3     1  UNL1       -0.0681
      2 H           0.1776    5.1634    2.7674 H       1  UNL1        0.0227
      3 H           1.0474    5.2165    4.2969 H       1  UNL1        0.0227
      4 H          -0.5690    4.5109    4.2290 H       1  UNL1        0.0227
@<TRIPOS>BOND
     1     2     1    1
     2     1     4    1
     3     1     3    1
