@<TRIPOS>MOLECULE
1
 4 3 0 0 0
SMALL
GASTEIGER

@<TRIPOS>ATOM
      1 C           8.5448   11.3765   -0.2766 C.3     1  UNL1       -0.0681
      2 H           8.1879   12.2448   -0.8394 H       1  UNL1        0.0227
      3 H           7.6805   10.7398   -0.0743 H       1  UNL1        0.0227
      4 H           9.2119   10.8172   -0.9426 H       1  UNL1        0.0227
@<TRIPOS>BOND
     1     4     1    1
     2     2     1    1
     3     1     3    1
