@<TRIPOS>MOLECULE
1
 4 3 0 0 0
SMALL
GASTEIGER

@<TRIPOS>ATOM
      1 C           2.8852    3.7984    2.2151 C.3     1  UNL1       -0.0681
      2 H           3.6938    3.1814    1.8021 H       1  UNL1        0.0227
      3 H           3.3577    4.5250    2.8935 H       1  UNL1        0.0227
      4 H           2.4736    4.3856    1.3805 H       1  UNL1        0.0227
@<TRIPOS>BOND
     1     4     1    1
     2     2     1    1
     3     1     3    1
