@<TRIPOS>MOLECULE
1
 4 3 0 0 0
SMALL
GASTEIGER

@<TRIPOS>ATOM
      1 C          10.7148   12.9675    0.2504 C.3     1  UNL1       -0.0681
      2 H          11.2729   12.3175   -0.4336 H       1  UNL1        0.0227
      3 H          11.4476   13.5192    0.8437 H       1  UNL1        0.0227
      4 H          10.1784   13.6946   -0.3676 H       1  UNL1        0.0227
@<TRIPOS>BOND
     1     2     1    1
     2     4     1    1
     3     1     3    1
