@<TRIPOS>MOLECULE
1
 4 3 0 0 0
SMALL
GASTEIGER

@<TRIPOS>ATOM
      1 C           0.2422    4.6303    3.6430 C.3     1  UNL1       -0.0681
      2 H           0.0160    5.1851    2.7247 H       1  UNL1        0.0227
      3 H           0.8692    5.2967    4.2505 H       1  UNL1        0.0227
      4 H          -0.7022    4.5174    4.1820 H       1  UNL1        0.0227
@<TRIPOS>BOND
     1     2     1    1
     2     1     4    1
     3     1     3    1
