@<TRIPOS>MOLECULE
1
 4 3 0 0 0
SMALL
GASTEIGER

@<TRIPOS>ATOM
      1 C           2.8805    3.8625    2.1766 C.3     1  UNL1       -0.0681
      2 H           3.6862    3.2493    1.7642 H       1  UNL1        0.0227
      3 H           3.3554    4.5810    2.8577 H       1  UNL1        0.0227
      4 H           2.4802    4.4559    1.3459 H       1  UNL1        0.0227
@<TRIPOS>BOND
     1     4     1    1
     2     2     1    1
     3     1     3    1
