@<TRIPOS>MOLECULE
20
 47 49 0 0 0
SMALL
GASTEIGER

@<TRIPOS>ATOM
      1 B           9.3518    7.4860    2.8968 B       1  UNL1        0.0000
      2 F           7.8502    9.1352    1.0408 F       1  UNL1        0.0000
      3 F           8.4046    9.5962   -1.5218 F       1  UNL1        0.0000
      4 F          10.5498    8.3740   -2.7283 F       1  UNL1        0.0000
      5 F          12.0942    6.6562   -1.2633 F       1  UNL1        0.0000
      6 F          11.5502    6.1888    1.3000 F       1  UNL1        0.0000
      7 F           9.1032    4.9763    1.3979 F       1  UNL1        0.0000
      8 F           7.1541    3.1885    1.5318 F       1  UNL1        0.0000
      9 F           5.0237    3.5593    3.2189 F       1  UNL1        0.0000
     10 F           4.9543    5.8368    4.7697 F       1  UNL1        0.0000
     11 F           6.8692    7.6191    4.6783 F       1  UNL1        0.0000
     12 F           9.3246    5.5211    5.1420 F       1  UNL1        0.0000
     13 F          11.3824    4.8348    6.6598 F       1  UNL1        0.0000
     14 F          13.8643    5.9290    6.2426 F       1  UNL1        0.0000
     15 F          14.1808    7.7593    4.2252 F       1  UNL1        0.0000
     16 F          12.1334    8.4411    2.6813 F       1  UNL1        0.0000
     17 C           8.8720    8.9305    3.5560 C.3     1  UNL1        0.0000
     18 C           9.6082   10.1834    3.1862 C.2     1  UNL1        0.0000
     19 C           9.0033   11.3701    3.0525 C.2     1  UNL1        0.0000
     20 C           7.5397   11.6053    3.1450 C.3     1  UNL1        0.0000
     21 C           7.2091   13.0918    3.0951 C.3     1  UNL1        0.0000
     22 H           6.1542   13.2747    3.2982 H       1  UNL1        0.0000
     23 H           7.4301   13.4994    2.1040 H       1  UNL1        0.0000
     24 H           7.8015   13.6495    3.8170 H       1  UNL1        0.0000
     25 C           9.7135    7.6869    1.3133 C.ar    1  UNL1        0.0000
     26 C           8.9415    8.5212    0.5142 C.ar    1  UNL1        0.0000
     27 C           9.1976    8.7677   -0.8276 C.ar    1  UNL1        0.0000
     28 C          10.2780    8.1483   -1.4403 C.ar    1  UNL1        0.0000
     29 C          11.0616    7.2802   -0.6900 C.ar    1  UNL1        0.0000
     30 C          10.7683    7.0607    0.6522 C.ar    1  UNL1        0.0000
     31 C           8.1061    6.4051    3.0011 C.ar    1  UNL1        0.0000
     32 C           8.0985    5.2343    2.2412 C.ar    1  UNL1        0.0000
     33 C           7.0880    4.2783    2.2988 C.ar    1  UNL1        0.0000
     34 C           6.0061    4.4584    3.1522 C.ar    1  UNL1        0.0000
     35 C           5.9754    5.6041    3.9328 C.ar    1  UNL1        0.0000
     36 C           7.0044    6.5324    3.8403 C.ar    1  UNL1        0.0000
     37 C          10.6292    6.9830    3.7941 C.ar    1  UNL1        0.0000
     38 C          10.5185    6.0775    4.8440 C.ar    1  UNL1        0.0000
     39 C          11.5797    5.7082    5.6642 C.ar    1  UNL1        0.0000
     40 C          12.8351    6.2622    5.4598 C.ar    1  UNL1        0.0000
     41 C          12.9909    7.1854    4.4338 C.ar    1  UNL1        0.0000
     42 C          11.9037    7.5255    3.6381 C.ar    1  UNL1        0.0000
     43 H           8.9492    8.8007    4.6501 H       1  UNL1        0.0000
     44 H           7.8039    9.0887    3.2825 H       1  UNL1        0.0000
     45 H          10.6773   10.1137    3.0488 H       1  UNL1        0.0000
     46 H           9.6212   12.2403    2.8430 H       1  UNL1        0.0000
     47 H           7.0513   11.1328    2.2714 H       1  UNL1        0.0000
@<TRIPOS>BOND
     1     4    28    1
     2     3    27    1
     3    28    27   ar
     4    28    29   ar
     5     5    29    1
     6    27    26   ar
     7    29    30   ar
     8    26     2    1
     9    26    25   ar
    10    30     6    1
    11    30    25   ar
    12    25     1    1
    13     7    32    1
    14     8    33    1
    15    23    21    1
    16    32    33   ar
    17    32    31   ar
    18    47    20    1
    19    33    34   ar
    20    16    42    1
    21    46    19    1
    22     1    31    1
    23     1    17    1
    24     1    37    1
    25    31    36   ar
    26    45    18    1
    27    19    20    1
    28    19    18    2
    29    21    20    1
    30    21    22    1
    31    21    24    1
    32    34     9    1
    33    34    35   ar
    34    18    17    1
    35    44    17    1
    36    17    43    1
    37    42    37   ar
    38    42    41   ar
    39    37    38   ar
    40    36    35   ar
    41    36    11    1
    42    35    10    1
    43    15    41    1
    44    41    40   ar
    45    38    12    1
    46    38    39   ar
    47    40    39   ar
    48    40    14    1
    49    39    13    1
