@<TRIPOS>MOLECULE
2
 44 44 0 0 0
SMALL
GASTEIGER

@<TRIPOS>ATOM
      1 SI        -16.0566   17.8736    2.1684 Si      1  UNL1        0.0000
      2 C          -9.8418   23.9057    2.5453 C.3     1  UNL1        0.0000
      3 C         -10.7999   22.9094    2.4785 C.ar    1  UNL1        0.0000
      4 C         -11.2016   22.1903    3.6308 C.ar    1  UNL1        0.0000
      5 H         -10.7250   22.4247    4.5745 H       1  UNL1        0.0000
      6 C         -12.1674   21.2216    3.5659 C.ar    1  UNL1        0.0000
      7 H         -12.4671   20.6864    4.4569 H       1  UNL1        0.0000
      8 C         -12.7858   20.9106    2.3462 C.ar    1  UNL1        0.0000
      9 C         -12.3873   21.5970    1.1900 C.ar    1  UNL1        0.0000
     10 H         -12.8559   21.3505    0.2467 H       1  UNL1        0.0000
     11 C         -11.4228   22.5670    1.2532 C.ar    1  UNL1        0.0000
     12 H         -11.1176   23.0936    0.3574 H       1  UNL1        0.0000
     13 C         -13.7978   19.9367    2.2845 C.1     1  UNL1        0.0000
     14 C         -14.6816   19.1080    2.2278 C.1     1  UNL1        0.0000
     15 C         -15.3468   16.3053    1.3078 C.3     1  UNL1        0.0000
     16 H         -14.5547   15.9302    1.9652 H       1  UNL1        0.0000
     17 C         -14.6903   16.6246   -0.0317 C.3     1  UNL1        0.0000
     18 H         -13.9688   17.4303    0.0789 H       1  UNL1        0.0000
     19 H         -15.4324   16.9301   -0.7644 H       1  UNL1        0.0000
     20 H         -14.1730   15.7487   -0.4234 H       1  UNL1        0.0000
     21 C         -16.3708   15.1859    1.1394 C.3     1  UNL1        0.0000
     22 H         -16.8408   14.9379    2.0887 H       1  UNL1        0.0000
     23 H         -15.8927   14.2857    0.7521 H       1  UNL1        0.0000
     24 H         -17.1477   15.4774    0.4359 H       1  UNL1        0.0000
     25 C         -17.5336   18.7737    1.3231 C.3     1  UNL1        0.0000
     26 H         -17.6889   19.6947    1.8962 H       1  UNL1        0.0000
     27 C         -17.2165   19.1938   -0.1085 C.3     1  UNL1        0.0000
     28 H         -16.2699   19.7270   -0.1498 H       1  UNL1        0.0000
     29 H         -17.9972   19.8462   -0.4998 H       1  UNL1        0.0000
     30 H         -17.1513   18.3254   -0.7597 H       1  UNL1        0.0000
     31 C         -18.8398   17.9842    1.3625 C.3     1  UNL1        0.0000
     32 H         -19.0995   17.7066    2.3816 H       1  UNL1        0.0000
     33 H         -18.7629   17.0756    0.7695 H       1  UNL1        0.0000
     34 H         -19.6570   18.5803    0.9551 H       1  UNL1        0.0000
     35 C         -16.5253   17.4589    3.9849 C.3     1  UNL1        0.0000
     36 H         -17.3467   16.7347    4.0037 H       1  UNL1        0.0000
     37 C         -15.3461   16.8397    4.7286 C.3     1  UNL1        0.0000
     38 H         -15.0484   15.8976    4.2755 H       1  UNL1        0.0000
     39 H         -15.6047   16.6479    5.7700 H       1  UNL1        0.0000
     40 H         -14.4927   17.5138    4.7071 H       1  UNL1        0.0000
     41 C         -16.9927   18.7110    4.7210 C.3     1  UNL1        0.0000
     42 H         -17.8803   19.1314    4.2552 H       1  UNL1        0.0000
     43 H         -16.2111   19.4673    4.7077 H       1  UNL1        0.0000
     44 H         -17.2306   18.4825    5.7599 H       1  UNL1        0.0000
@<TRIPOS>BOND
     1    19    17    1
     2    30    27    1
     3    29    27    1
     4    20    17    1
     5    28    27    1
     6    27    25    1
     7    17    18    1
     8    17    15    1
     9    10     9    1
    10    12    11    1
    11    24    21    1
    12    23    21    1
    13    33    31    1
    14    34    31    1
    15    21    15    1
    16    21    22    1
    17     9    11   ar
    18     9     8   ar
    19    11     3   ar
    20    15    16    1
    21    15     1    1
    22    25    31    1
    23    25    26    1
    24    25     1    1
    25    31    32    1
    26     1    14    1
    27     1    35    1
    28    14    13    3
    29    13     8    1
    30     8     6   ar
    31     3     2    1
    32     3     4   ar
    33     6     4   ar
    34     6     7    1
    35     4     5    1
    36    35    36    1
    37    35    41    1
    38    35    37    1
    39    42    41    1
    40    38    37    1
    41    40    37    1
    42    43    41    1
    43    41    44    1
    44    37    39    1
