@<TRIPOS>MOLECULE
1
 16 16 0 0 0
SMALL
GASTEIGER

@<TRIPOS>ATOM
      1 C          -7.0011   26.7768    2.7097 C.1     1  UNL1       -0.0092
      2 C          -6.1989   27.6900    2.7946 C.1     1  UNL1       -0.0525
      3 C          -5.2738   28.7553    2.8998 C.ar    1  UNL1        0.0259
      4 C          -4.5274   28.9417    4.0658 C.ar    1  UNL1       -0.0461
      5 H          -4.6555   28.2541    4.8925 H       1  UNL1        0.0630
      6 C          -3.6357   29.9901    4.1701 C.ar    1  UNL1       -0.0577
      7 H          -3.0669   30.1168    5.0821 H       1  UNL1        0.0621
      8 C          -3.4586   30.8852    3.1230 C.ar    1  UNL1       -0.0504
      9 C          -4.2021   30.7012    1.9612 C.ar    1  UNL1       -0.0577
     10 H          -4.0751   31.3910    1.1370 H       1  UNL1        0.0621
     11 C          -5.0946   29.6571    1.8461 C.ar    1  UNL1       -0.0461
     12 H          -5.6665   29.5280    0.9356 H       1  UNL1        0.0630
     13 C          -2.4947   32.0292    3.2294 C.3     1  UNL1       -0.0397
     14 H          -1.9789   32.0157    4.1870 H       1  UNL1        0.0278
     15 H          -3.0192   32.9802    3.1322 H       1  UNL1        0.0278
     16 H          -1.7511   31.9779    2.4340 H       1  UNL1        0.0278
@<TRIPOS>BOND
     1    12    11    1
     2    10     9    1
     3    11     9   ar
     4    11     3   ar
     5     9     8   ar
     6    16    13    1
     7     1     2    3
     8     2     3    1
     9     3     4   ar
    10     8    13    1
    11     8     6   ar
    12    15    13    1
    13    13    14    1
    14     4     6   ar
    15     4     5    1
    16     6     7    1
