@<TRIPOS>MOLECULE
3
 28 27 0 0 0
SMALL
GASTEIGER

@<TRIPOS>ATOM
      1 SI          4.6042    8.9515    1.5832 Si      1  UNL1        0.0000
      2 SI          1.8989    7.9311    3.1571 Si      1  UNL1        0.0000
      3 C           3.7532    7.6981    2.7558 C.3     1  UNL1        0.0000
      4 H           3.7994    6.7519    2.2133 H       1  UNL1        0.0000
      5 C           6.2755    8.1922    1.0486 C.3     1  UNL1        0.0000
      6 H           6.9700    8.1380    1.8826 H       1  UNL1        0.0000
      7 H           6.7454    8.7769    0.2646 H       1  UNL1        0.0000
      8 H           6.1460    7.1836    0.6685 H       1  UNL1        0.0000
      9 C           3.5386    9.1907    0.0168 C.3     1  UNL1        0.0000
     10 H           2.5807    9.6430    0.2449 H       1  UNL1        0.0000
     11 H           3.3483    8.2469   -0.4815 H       1  UNL1        0.0000
     12 H           4.0461    9.8363   -0.6915 H       1  UNL1        0.0000
     13 C           4.9200   10.6537    2.3842 C.3     1  UNL1        0.0000
     14 H           4.0239   11.0551    2.8441 H       1  UNL1        0.0000
     15 H           5.2572   11.3713    1.6420 H       1  UNL1        0.0000
     16 H           5.6848   10.5907    3.1535 H       1  UNL1        0.0000
     17 C           1.3199    9.7413    3.3046 C.3     1  UNL1        0.0000
     18 H           1.8451   10.2662    4.0939 H       1  UNL1        0.0000
     19 H           0.2597    9.7790    3.5344 H       1  UNL1        0.0000
     20 H           1.4738   10.2855    2.3794 H       1  UNL1        0.0000
     21 C           0.8902    7.0872    1.7701 C.3     1  UNL1        0.0000
     22 H           1.1202    6.0294    1.6967 H       1  UNL1        0.0000
     23 H           1.0891    7.5340    0.8035 H       1  UNL1        0.0000
     24 H          -0.1740    7.1770    1.9595 H       1  UNL1        0.0000
     25 C           1.5492    6.9858    4.7834 C.3     1  UNL1        0.0000
     26 H           1.8781    7.5572    5.6467 H       1  UNL1        0.0000
     27 H           2.0683    6.0289    4.7969 H       1  UNL1        0.0000
     28 H           0.4900    6.7852    4.9098 H       1  UNL1        0.0000
@<TRIPOS>BOND
     1    12     9    1
     2    11     9    1
     3     9    10    1
     4     9     1    1
     5     7     5    1
     6     8     5    1
     7    23    21    1
     8     5     1    1
     9     5     6    1
    10     1    13    1
    11     1     3    1
    12    15    13    1
    13    22    21    1
    14    21    24    1
    15    21     2    1
    16     4     3    1
    17    20    17    1
    18    13    14    1
    19    13    16    1
    20     3     2    1
    21     2    17    1
    22     2    25    1
    23    17    19    1
    24    17    18    1
    25    25    27    1
    26    25    28    1
    27    25    26    1
