@<TRIPOS>MOLECULE
3
 24 23 0 0 0
SMALL
GASTEIGER

@<TRIPOS>ATOM
      1 P           1.3486   -4.5024   -3.7688 P.3     1  UNL1        0.0000
      2 SI          1.1064   -1.4949   -5.1887 Si      1  UNL1        0.0000
      3 C           1.1565   -2.6731   -3.7059 C.3     1  UNL1        0.0000
      4 C          -0.3571   -5.0643   -4.2665 C.3     1  UNL1        0.0000
      5 C           2.1445   -4.8080   -5.4147 C.3     1  UNL1        0.0000
      6 C           0.0146   -0.0339   -4.6011 C.3     1  UNL1        0.0000
      7 C           2.8362   -0.8439   -5.6939 C.3     1  UNL1        0.0000
      8 C           0.2833   -2.0732   -6.8306 C.3     1  UNL1        0.0000
      9 H          -1.0479   -4.9099   -3.4394 H       1  UNL1        0.0000
     10 H          -0.3363   -6.1260   -4.5050 H       1  UNL1        0.0000
     11 H          -0.7022   -4.5006   -5.1317 H       1  UNL1        0.0000
     12 H           1.5018   -4.4552   -6.2165 H       1  UNL1        0.0000
     13 H           3.1065   -4.3073   -5.4703 H       1  UNL1        0.0000
     14 H           2.3028   -5.8802   -5.5296 H       1  UNL1        0.0000
     15 H           0.3444    0.3358   -3.6355 H       1  UNL1        0.0000
     16 H          -1.0279   -0.3250   -4.5096 H       1  UNL1        0.0000
     17 H           0.0606    0.7932   -5.3015 H       1  UNL1        0.0000
     18 H           2.7212    0.0175   -6.3445 H       1  UNL1        0.0000
     19 H           3.4189   -1.5779   -6.2429 H       1  UNL1        0.0000
     20 H           3.4045   -0.5218   -4.8251 H       1  UNL1        0.0000
     21 H          -0.6312   -2.6310   -6.6579 H       1  UNL1        0.0000
     22 H           0.9411   -2.6888   -7.4351 H       1  UNL1        0.0000
     23 H           0.0202   -1.2063   -7.4285 H       1  UNL1        0.0000
     24 H           0.2118   -2.5161   -3.1597 H       1  UNL1        0.0000
@<TRIPOS>BOND
     1    22     8    1
     2    23     8    1
     3     8    21    1
     4     8     2    1
     5    18     7    1
     6    19     7    1
     7    12     5    1
     8     7     2    1
     9     7    20    1
    10    14     5    1
    11    13     5    1
    12     5     1    1
    13    17     6    1
    14     2     6    1
    15     2     3    1
    16    11     4    1
    17     6    16    1
    18     6    15    1
    19    10     4    1
    20     4     1    1
    21     4     9    1
    22     1     3    1
    23     3    24    1
