@<TRIPOS>MOLECULE
3
 28 27 0 0 0
SMALL
GASTEIGER

@<TRIPOS>ATOM
      1 SI          0.0536  -18.1034    0.8677 Si      1  UNL1        0.0000
      2 SI         -0.4749  -17.8234   -2.2979 Si      1  UNL1        0.0000
      3 C          -1.1838  -17.8472   -0.5425 C.3     1  UNL1        0.0000
      4 C           0.9136  -16.4425    1.3013 C.3     1  UNL1        0.0000
      5 C           1.4388  -19.3875    0.5656 C.3     1  UNL1        0.0000
      6 C          -0.8893  -18.6475    2.4449 C.3     1  UNL1        0.0000
      7 C          -1.8111  -17.1628   -3.5136 C.3     1  UNL1        0.0000
      8 C           1.0189  -16.6362   -2.4302 C.3     1  UNL1        0.0000
      9 C           0.0648  -19.5310   -2.9719 C.3     1  UNL1        0.0000
     10 H          -1.9069  -18.6711   -0.4948 H       1  UNL1        0.0000
     11 H           0.1927  -15.6916    1.6298 H       1  UNL1        0.0000
     12 H           1.4575  -16.0460    0.4502 H       1  UNL1        0.0000
     13 H           1.6295  -16.5741    2.1073 H       1  UNL1        0.0000
     14 H           2.0875  -19.0785   -0.2471 H       1  UNL1        0.0000
     15 H           1.0224  -20.3545    0.3037 H       1  UNL1        0.0000
     16 H           2.0581  -19.5252    1.4469 H       1  UNL1        0.0000
     17 H          -1.6646  -17.9366    2.7194 H       1  UNL1        0.0000
     18 H          -0.2153  -18.7399    3.2905 H       1  UNL1        0.0000
     19 H          -1.3644  -19.6124    2.3044 H       1  UNL1        0.0000
     20 H          -2.7290  -17.7398   -3.4489 H       1  UNL1        0.0000
     21 H          -1.4670  -17.2248   -4.5417 H       1  UNL1        0.0000
     22 H          -2.0588  -16.1179   -3.3205 H       1  UNL1        0.0000
     23 H           1.8858  -17.0433   -1.9220 H       1  UNL1        0.0000
     24 H           0.7985  -15.6694   -1.9869 H       1  UNL1        0.0000
     25 H           1.2975  -16.4678   -3.4657 H       1  UNL1        0.0000
     26 H           0.8533  -19.9600   -2.3641 H       1  UNL1        0.0000
     27 H           0.4330  -19.4640   -3.9912 H       1  UNL1        0.0000
     28 H          -0.7658  -20.2296   -2.9694 H       1  UNL1        0.0000
@<TRIPOS>BOND
     1    21     7    1
     2    27     9    1
     3     7    20    1
     4     7    22    1
     5     7     2    1
     6    25     8    1
     7     9    28    1
     8     9    26    1
     9     9     2    1
    10     8     2    1
    11     8    24    1
    12     8    23    1
    13     2     3    1
    14     3    10    1
    15     3     1    1
    16    14     5    1
    17    15     5    1
    18    12     4    1
    19     5     1    1
    20     5    16    1
    21     1     4    1
    22     1     6    1
    23     4    11    1
    24     4    13    1
    25    19     6    1
    26     6    17    1
    27     6    18    1
