@<TRIPOS>MOLECULE
2
 25 25 0 0 0
SMALL
GASTEIGER

@<TRIPOS>ATOM
      1 C           0.6981    8.7058    5.0545 C.2     1  UNL1       -0.0584
      2 C           1.2660   10.0482    5.0787 C.3     1  UNL1        0.0231
      3 C           0.1445   10.9389    5.3225 C.2     1  UNL1       -0.0584
      4 C          -0.9951   10.1772    5.4916 C.2     1  UNL1       -0.0477
      5 C          -0.6554    8.7991    5.3216 C.2     1  UNL1       -0.0477
      6 C           1.4664    7.4853    4.6322 C.3     1  UNL1       -0.0424
      7 C           2.3591   10.4505    4.1003 C.3     1  UNL1       -0.0510
      8 C           0.2140   12.4371    5.2500 C.3     1  UNL1       -0.0424
      9 C          -2.3727   10.7024    5.7462 C.3     1  UNL1       -0.0395
     10 C          -1.6521    7.6818    5.3714 C.3     1  UNL1       -0.0395
     11 H           2.5060    7.5352    4.9634 H       1  UNL1        0.0275
     12 H           1.0229    6.5764    5.0361 H       1  UNL1        0.0275
     13 H           1.4664    7.3959    3.5427 H       1  UNL1        0.0275
     14 H           1.9626   10.3727    3.0832 H       1  UNL1        0.0242
     15 H           2.6651   11.4860    4.2474 H       1  UNL1        0.0242
     16 H           3.2403    9.8144    4.1602 H       1  UNL1        0.0242
     17 H           0.1168   12.7696    4.2135 H       1  UNL1        0.0275
     18 H          -0.5969   12.8903    5.8171 H       1  UNL1        0.0275
     19 H           1.1605   12.8177    5.6386 H       1  UNL1        0.0275
     20 H          -2.8005   11.1158    4.8305 H       1  UNL1        0.0278
     21 H          -3.0315    9.9127    6.0974 H       1  UNL1        0.0278
     22 H          -2.3555   11.4958    6.4933 H       1  UNL1        0.0278
     23 H          -2.3914    7.8028    4.5785 H       1  UNL1        0.0278
     24 H          -1.1700    6.7167    5.2293 H       1  UNL1        0.0278
     25 H          -2.1896    7.6656    6.3219 H       1  UNL1        0.0278
@<TRIPOS>BOND
     1    14     7    1
     2    13     6    1
     3     7    16    1
     4     7    15    1
     5     7     2    1
     6    17     8    1
     7    23    10    1
     8     6    11    1
     9     6    12    1
    10     6     1    1
    11    20     9    1
    12     1     2    1
    13     1     5    2
    14     2     3    1
    15    24    10    1
    16     8     3    1
    17     8    19    1
    18     8    18    1
    19     5    10    1
    20     5     4    1
    21     3     4    2
    22    10    25    1
    23     4     9    1
    24     9    21    1
    25     9    22    1
