@<TRIPOS>MOLECULE
3
 28 27 0 0 0
SMALL
GASTEIGER

@<TRIPOS>ATOM
      1 SI         -5.9547  -16.7842   -1.0507 Si      1  UNL1        0.0000
      2 SI         -5.2581  -16.7671    2.1127 Si      1  UNL1        0.0000
      3 C          -5.0782  -15.9684    0.4113 C.3     1  UNL1        0.0000
      4 C          -5.2043  -18.4992   -1.4651 C.3     1  UNL1        0.0000
      5 C          -5.6893  -15.6754   -2.5964 C.3     1  UNL1        0.0000
      6 C          -7.8431  -17.0417   -0.8626 C.3     1  UNL1        0.0000
      7 C          -4.7023  -18.5981    2.0687 C.3     1  UNL1        0.0000
      8 C          -4.1054  -15.8429    3.3448 C.3     1  UNL1        0.0000
      9 C          -7.0100  -16.7086    2.8845 C.3     1  UNL1        0.0000
     10 H          -5.4316  -14.9333    0.4804 H       1  UNL1        0.0000
     11 H          -4.1167  -18.4732   -1.4955 H       1  UNL1        0.0000
     12 H          -5.5525  -18.8491   -2.4323 H       1  UNL1        0.0000
     13 H          -5.4973  -19.2401   -0.7307 H       1  UNL1        0.0000
     14 H          -4.6542  -15.3411   -2.6771 H       1  UNL1        0.0000
     15 H          -6.3175  -14.7923   -2.5551 H       1  UNL1        0.0000
     16 H          -5.9354  -16.2038   -3.5120 H       1  UNL1        0.0000
     17 H          -8.3329  -16.1338   -0.5262 H       1  UNL1        0.0000
     18 H          -8.0563  -17.8171   -0.1344 H       1  UNL1        0.0000
     19 H          -8.3049  -17.3361   -1.8002 H       1  UNL1        0.0000
     20 H          -5.5053  -19.2327    1.7106 H       1  UNL1        0.0000
     21 H          -4.4278  -18.9521    3.0573 H       1  UNL1        0.0000
     22 H          -3.8459  -18.7430    1.4149 H       1  UNL1        0.0000
     23 H          -3.0697  -15.8173    2.9960 H       1  UNL1        0.0000
     24 H          -4.1076  -16.3178    4.3213 H       1  UNL1        0.0000
     25 H          -4.4315  -14.8175    3.4848 H       1  UNL1        0.0000
     26 H          -7.0272  -17.1453    3.8786 H       1  UNL1        0.0000
     27 H          -7.7217  -17.2526    2.2734 H       1  UNL1        0.0000
     28 H          -7.3680  -15.6876    2.9694 H       1  UNL1        0.0000
@<TRIPOS>BOND
     1    16     5    1
     2    14     5    1
     3     5    15    1
     4     5     1    1
     5    12     4    1
     6    19     6    1
     7    11     4    1
     8     4     1    1
     9     4    13    1
    10     1     6    1
    11     1     3    1
    12     6    17    1
    13     6    18    1
    14     3    10    1
    15     3     2    1
    16    22     7    1
    17    20     7    1
    18     7     2    1
    19     7    21    1
    20     2     9    1
    21     2     8    1
    22    27     9    1
    23     9    28    1
    24     9    26    1
    25    23     8    1
    26     8    25    1
    27     8    24    1
