@<TRIPOS>MOLECULE
3
 28 27 0 0 0
SMALL
GASTEIGER

@<TRIPOS>ATOM
      1 SI          5.8999    9.7231    6.3680 Si      1  UNL1        0.0000
      2 SI          5.4886    9.3143    9.5070 Si      1  UNL1        0.0000
      3 C           4.8101    9.0558    7.7612 C.3     1  UNL1        0.0000
      4 C           7.7952    9.7195    6.6434 C.3     1  UNL1        0.0000
      5 C           5.6486    8.6434    4.7978 C.3     1  UNL1        0.0000
      6 C           5.4678   11.5550    5.9924 C.3     1  UNL1        0.0000
      7 C           5.8919   11.1529    9.8400 C.3     1  UNL1        0.0000
      8 C           4.1604    8.7692   10.7817 C.3     1  UNL1        0.0000
      9 C           7.0516    8.2914    9.9422 C.3     1  UNL1        0.0000
     10 H           4.7206    7.9722    7.6136 H       1  UNL1        0.0000
     11 H           8.1608    8.7211    6.8601 H       1  UNL1        0.0000
     12 H           8.3257   10.0780    5.7659 H       1  UNL1        0.0000
     13 H           8.0715   10.3581    7.4754 H       1  UNL1        0.0000
     14 H           5.7789    9.2170    3.8862 H       1  UNL1        0.0000
     15 H           6.3723    7.8352    4.7770 H       1  UNL1        0.0000
     16 H           4.6626    8.1900    4.7656 H       1  UNL1        0.0000
     17 H           5.9756   11.9040    5.0983 H       1  UNL1        0.0000
     18 H           4.4001   11.7140    5.8469 H       1  UNL1        0.0000
     19 H           5.7874   12.1912    6.8117 H       1  UNL1        0.0000
     20 H           5.0633   11.8024    9.5739 H       1  UNL1        0.0000
     21 H           6.1186   11.3235   10.8877 H       1  UNL1        0.0000
     22 H           6.7556   11.4676    9.2651 H       1  UNL1        0.0000
     23 H           4.5747    8.7080   11.7835 H       1  UNL1        0.0000
     24 H           3.3308    9.4722   10.8145 H       1  UNL1        0.0000
     25 H           3.7595    7.7881   10.5411 H       1  UNL1        0.0000
     26 H           7.9014    8.5990    9.3441 H       1  UNL1        0.0000
     27 H           7.3280    8.4041   10.9866 H       1  UNL1        0.0000
     28 H           6.8915    7.2331    9.7594 H       1  UNL1        0.0000
@<TRIPOS>BOND
     1    14     5    1
     2    16     5    1
     3    15     5    1
     4     5     1    1
     5    17     6    1
     6    12     4    1
     7    18     6    1
     8     6     1    1
     9     6    19    1
    10     1     4    1
    11     1     3    1
    12     4    11    1
    13     4    13    1
    14    10     3    1
    15     3     2    1
    16    22     7    1
    17    26     9    1
    18     2     7    1
    19     2     9    1
    20     2     8    1
    21    20     7    1
    22    28     9    1
    23     7    21    1
    24     9    27    1
    25    25     8    1
    26     8    24    1
    27     8    23    1
