@<TRIPOS>MOLECULE
3
 28 27 0 0 0
SMALL
GASTEIGER

@<TRIPOS>ATOM
      1 SI          1.5078   13.0144    9.6996 Si      1  UNL1        0.0000
      2 SI         -0.5031   10.5297   10.0886 Si      1  UNL1        0.0000
      3 C           0.6324   11.5183    8.9484 C.3     1  UNL1        0.0000
      4 C           2.7836   13.7078    8.4416 C.3     1  UNL1        0.0000
      5 C           0.3584   14.4927   10.1083 C.3     1  UNL1        0.0000
      6 C           2.4460   12.5750   11.3064 C.3     1  UNL1        0.0000
      7 C          -1.6174   11.5396   11.2749 C.3     1  UNL1        0.0000
      8 C          -1.6739    9.4756    8.9955 C.3     1  UNL1        0.0000
      9 C           0.4696    9.3166   11.2145 C.3     1  UNL1        0.0000
     10 H           0.0027   11.8941    8.1321 H       1  UNL1        0.0000
     11 H           2.2883   14.0512    7.5385 H       1  UNL1        0.0000
     12 H           3.3191   14.5574    8.8540 H       1  UNL1        0.0000
     13 H           3.5250   12.9641    8.1520 H       1  UNL1        0.0000
     14 H           0.9196   15.3577   10.4495 H       1  UNL1        0.0000
     15 H          -0.2097   14.7966    9.2346 H       1  UNL1        0.0000
     16 H          -0.3527   14.2349   10.8849 H       1  UNL1        0.0000
     17 H           3.0427   13.4132   11.6523 H       1  UNL1        0.0000
     18 H           1.7499   12.3224   12.0987 H       1  UNL1        0.0000
     19 H           3.1157   11.7321   11.1703 H       1  UNL1        0.0000
     20 H          -2.1894   12.2860   10.7339 H       1  UNL1        0.0000
     21 H          -2.3231   10.9057   11.8039 H       1  UNL1        0.0000
     22 H          -1.0218   12.0586   12.0186 H       1  UNL1        0.0000
     23 H          -2.0135    8.5774    9.5030 H       1  UNL1        0.0000
     24 H          -2.5575   10.0436    8.7268 H       1  UNL1        0.0000
     25 H          -1.1832    9.1799    8.0708 H       1  UNL1        0.0000
     26 H           1.1009    9.8559   11.9122 H       1  UNL1        0.0000
     27 H          -0.2095    8.7070   11.8040 H       1  UNL1        0.0000
     28 H           1.1048    8.6439   10.6420 H       1  UNL1        0.0000
@<TRIPOS>BOND
     1    11     4    1
     2    25     8    1
     3    10     3    1
     4    13     4    1
     5     4    12    1
     6     4     1    1
     7    24     8    1
     8     3     1    1
     9     3     2    1
    10     8    23    1
    11     8     2    1
    12    15     5    1
    13     1     5    1
    14     1     6    1
    15     2     9    1
    16     2     7    1
    17     5    14    1
    18     5    16    1
    19    28     9    1
    20    20     7    1
    21    19     6    1
    22     9    27    1
    23     9    26    1
    24     7    21    1
    25     7    22    1
    26     6    17    1
    27     6    18    1
