@<TRIPOS>MOLECULE
1
 14 14 0 0 0
SMALL
GASTEIGER

@<TRIPOS>ATOM
      1 C           0.0481    3.5998   22.5923 C.3     1  UNL1       -0.0237
      2 H           1.1138    3.4120   22.3890 H       1  UNL1        0.0316
      3 H          -0.0880    4.6265   22.9677 H       1  UNL1        0.0316
      4 C          -1.5744    2.8600   24.3547 C.ar    1  UNL1       -0.0586
      5 H          -2.1227    3.7849   24.2220 H       1  UNL1        0.0620
      6 C          -1.9981    1.9514   25.3026 C.ar    1  UNL1       -0.0615
      7 H          -2.8788    2.1641   25.8923 H       1  UNL1        0.0618
      8 C          -1.2975    0.7735   25.5127 C.ar    1  UNL1       -0.0617
      9 H          -1.6256    0.0663   26.2596 H       1  UNL1        0.0618
     10 C          -0.1642    0.5192   24.7556 C.ar    1  UNL1       -0.0615
     11 H           0.3958   -0.3922   24.9154 H       1  UNL1        0.0618
     12 C           0.2619    1.4275   23.8070 C.ar    1  UNL1       -0.0586
     13 H           1.1609    1.2215   23.2362 H       1  UNL1        0.0620
     14 C          -0.4325    2.6254   23.5730 C.ar    1  UNL1       -0.0470
@<TRIPOS>BOND
     1     2     1    1
     2     1     3    1
     3     1    14    1
     4    13    12    1
     5    14    12   ar
     6    14     4   ar
     7    12    10   ar
     8     5     4    1
     9     4     6   ar
    10    10    11    1
    11    10     8   ar
    12     6     8   ar
    13     6     7    1
    14     8     9    1
