@<TRIPOS>MOLECULE
1
 14 14 0 0 0
SMALL
GASTEIGER

@<TRIPOS>ATOM
      1 C          -3.1229    4.3400   21.1927 C.3     1  UNL1       -0.0237
      2 H          -3.8485    4.0880   20.4074 H       1  UNL1        0.0316
      3 H          -3.4465    3.9295   22.1590 H       1  UNL1        0.0316
      4 C          -3.0236    6.5751   20.0915 C.ar    1  UNL1       -0.0586
      5 H          -3.3652    6.1067   19.1740 H       1  UNL1        0.0620
      6 C          -2.8106    7.9378   20.1288 C.ar    1  UNL1       -0.0615
      7 H          -2.9617    8.5295   19.2362 H       1  UNL1        0.0618
      8 C          -2.4215    8.5593   21.3069 C.ar    1  UNL1       -0.0617
      9 H          -2.2652    9.6271   21.3358 H       1  UNL1        0.0618
     10 C          -2.2513    7.7924   22.4496 C.ar    1  UNL1       -0.0615
     11 H          -1.9627    8.2691   23.3763 H       1  UNL1        0.0618
     12 C          -2.4650    6.4290   22.4199 C.ar    1  UNL1       -0.0586
     13 H          -2.3677    5.8556   23.3350 H       1  UNL1        0.0620
     14 C          -2.8590    5.7725   21.2375 C.ar    1  UNL1       -0.0470
@<TRIPOS>BOND
     1     5     4    1
     2     7     6    1
     3     4     6   ar
     4     4    14   ar
     5     6     8   ar
     6     2     1    1
     7     1    14    1
     8     1     3    1
     9    14    12   ar
    10     8     9    1
    11     8    10   ar
    12    12    10   ar
    13    12    13    1
    14    10    11    1
