@<TRIPOS>MOLECULE
1
 14 14 0 0 0
SMALL
GASTEIGER

@<TRIPOS>ATOM
      1 C          -1.1042    1.3077   20.5005 C.3     1  UNL1       -0.0237
      2 H          -0.9672    1.0193   19.4509 H       1  UNL1        0.0316
      3 H          -0.3840    0.7726   21.1331 H       1  UNL1        0.0316
      4 C          -2.7810    0.5852   22.2258 C.ar    1  UNL1       -0.0586
      5 H          -1.9717    0.2933   22.8783 H       1  UNL1        0.0620
      6 C          -4.0844    0.4328   22.6545 C.ar    1  UNL1       -0.0615
      7 H          -4.2742    0.0474   23.6460 H       1  UNL1        0.0618
      8 C          -5.1453    0.7505   21.8213 C.ar    1  UNL1       -0.0617
      9 H          -6.1639    0.6241   22.1560 H       1  UNL1        0.0618
     10 C          -4.8797    1.2163   20.5425 C.ar    1  UNL1       -0.0615
     11 H          -5.6995    1.4465   19.8749 H       1  UNL1        0.0618
     12 C          -3.5782    1.3848   20.1136 C.ar    1  UNL1       -0.0586
     13 H          -3.3920    1.7403   19.1039 H       1  UNL1        0.0620
     14 C          -2.4822    1.0880   20.9486 C.ar    1  UNL1       -0.0470
@<TRIPOS>BOND
     1    13    12    1
     2     2     1    1
     3    11    10    1
     4    12    10   ar
     5    12    14   ar
     6     1    14    1
     7     1     3    1
     8    10     8   ar
     9    14     4   ar
    10     8     9    1
    11     8     6   ar
    12     4     6   ar
    13     4     5    1
    14     6     7    1
