@<TRIPOS>MOLECULE
5
 44 43 0 0 0
SMALL
GASTEIGER

@<TRIPOS>ATOM
      1 SI          3.4673   -5.4783   -3.5016 Si      1  UNL1        0.0000
      2 O           1.0808   -0.1163   -1.5254 O.3     1  UNL1        0.0000
      3 O           2.9432   -4.9544   -2.0389 O.3     1  UNL1        0.0000
      4 N           3.0422   -2.1898   -2.1134 N.3     1  UNL1        0.0000
      5 C           0.3116   -0.7887   -2.3994 C.3     1  UNL1        0.0000
      6 C           0.6738   -2.1588   -2.4506 C.3     1  UNL1        0.0000
      7 H          -0.1287   -2.7952   -2.7880 H       1  UNL1        0.0000
      8 C           1.8401   -2.7934   -2.0566 C.3     1  UNL1        0.0000
      9 C           1.7764   -4.2697   -1.6439 C.3     1  UNL1        0.0000
     10 C           1.6704   -4.3365   -0.1087 C.3     1  UNL1        0.0000
     11 H           1.6383   -5.3777    0.2020 H       1  UNL1        0.0000
     12 H           0.7594   -3.8389    0.2119 H       1  UNL1        0.0000
     13 H           2.5152   -3.8578    0.3760 H       1  UNL1        0.0000
     14 C           0.8170    1.2447   -1.2362 C.3     1  UNL1        0.0000
     15 H          -0.2170    1.3470   -0.8827 H       1  UNL1        0.0000
     16 H           0.9342    1.8513   -2.1439 H       1  UNL1        0.0000
     17 C           1.7887    1.7006   -0.1567 C.3     1  UNL1        0.0000
     18 H           1.5650    2.7245    0.1275 H       1  UNL1        0.0000
     19 H           2.8138    1.6546   -0.5170 H       1  UNL1        0.0000
     20 H           1.6985    1.0625    0.7188 H       1  UNL1        0.0000
     21 C           3.2437   -0.9942   -2.8882 C.3     1  UNL1        0.0000
     22 H           2.4755   -0.9111   -3.6574 H       1  UNL1        0.0000
     23 H           4.2243   -1.0474   -3.3653 H       1  UNL1        0.0000
     24 H           3.2086   -0.0949   -2.2677 H       1  UNL1        0.0000
     25 C           4.2044   -2.5611   -1.3424 C.3     1  UNL1        0.0000
     26 H           4.1372   -3.5797   -0.9819 H       1  UNL1        0.0000
     27 H           4.3190   -1.8755   -0.4958 H       1  UNL1        0.0000
     28 H           5.0949   -2.4825   -1.9678 H       1  UNL1        0.0000
     29 C           0.5619   -5.0018   -2.2246 C.3     1  UNL1        0.0000
     30 H           0.5202   -4.8833   -3.3031 H       1  UNL1        0.0000
     31 H          -0.3654   -4.6565   -1.7788 H       1  UNL1        0.0000
     32 H           0.6801   -6.0591   -2.0011 H       1  UNL1        0.0000
     33 C           2.6196   -7.1000   -4.0437 C.3     1  UNL1        0.0000
     34 H           2.5394   -7.7998   -3.2163 H       1  UNL1        0.0000
     35 H           3.1935   -7.5892   -4.8243 H       1  UNL1        0.0000
     36 H           1.6193   -6.9378   -4.4345 H       1  UNL1        0.0000
     37 C           5.3036   -5.8109   -3.1355 C.3     1  UNL1        0.0000
     38 H           5.4234   -6.4558   -2.2712 H       1  UNL1        0.0000
     39 H           5.8583   -4.8984   -2.9430 H       1  UNL1        0.0000
     40 H           5.7702   -6.3047   -3.9804 H       1  UNL1        0.0000
     41 C           3.2552   -4.1716   -4.8769 C.3     1  UNL1        0.0000
     42 H           3.9601   -3.3529   -4.7664 H       1  UNL1        0.0000
     43 H           2.2573   -3.7406   -4.8729 H       1  UNL1        0.0000
     44 H           3.4168   -4.6030   -5.8593 H       1  UNL1        0.0000
@<TRIPOS>BOND
     1    44    41    1
     2    41    43    1
     3    41    42    1
     4    41     1    1
     5    35    33    1
     6    36    33    1
     7    33     1    1
     8    33    34    1
     9    40    37    1
    10    22    21    1
    11     1    37    1
    12     1     3    1
    13    23    21    1
    14    30    29    1
    15    37    39    1
    16    37    38    1
    17    21    24    1
    18    21     4    1
    19     7     6    1
    20     6     5    1
    21     6     8    1
    22     5     2    1
    23    29    32    1
    24    29    31    1
    25    29     9    1
    26    16    14    1
    27     4     8    1
    28     4    25    1
    29     8     9    1
    30     3     9    1
    31    28    25    1
    32     9    10    1
    33     2    14    1
    34    25    26    1
    35    25    27    1
    36    14    15    1
    37    14    17    1
    38    19    17    1
    39    17    18    1
    40    17    20    1
    41    10    11    1
    42    10    12    1
    43    10    13    1
