@<TRIPOS>MOLECULE
2
 16 15 0 0 0
SMALL
GASTEIGER

@<TRIPOS>ATOM
      1 SI          3.5692    3.8061    5.3118 Si      1  UNL1        0.0000
      2 C           3.3354    4.2435    3.4752 C.3     1  UNL1        0.0000
      3 C           5.1345    4.7174    5.9342 C.3     1  UNL1        0.0000
      4 C           3.8059    1.9309    5.5649 C.3     1  UNL1        0.0000
      5 C           2.0873    4.4109    6.3594 C.3     1  UNL1        0.0000
      6 H           3.2896    5.3330    3.3685 H       1  UNL1        0.0000
      7 H           4.2122    3.9155    2.9135 H       1  UNL1        0.0000
      8 H           6.0149    4.4209    5.3744 H       1  UNL1        0.0000
      9 H           5.0346    5.7940    5.8434 H       1  UNL1        0.0000
     10 H           5.3196    4.4928    6.9788 H       1  UNL1        0.0000
     11 H           2.9440    1.4017    5.1704 H       1  UNL1        0.0000
     12 H           4.6867    1.5627    5.0484 H       1  UNL1        0.0000
     13 H           3.9068    1.6765    6.6158 H       1  UNL1        0.0000
     14 H           1.8669    5.4611    6.1860 H       1  UNL1        0.0000
     15 H           1.2034    3.8335    6.1052 H       1  UNL1        0.0000
     16 H           2.2699    4.2842    7.4223 H       1  UNL1        0.0000
@<TRIPOS>BOND
     1     7     2    1
     2     6     2    1
     3     2     1    1
     4    12     4    1
     5    11     4    1
     6     1     4    1
     7     1     3    1
     8     1     5    1
     9     8     3    1
    10     4    13    1
    11     9     3    1
    12     3    10    1
    13    15     5    1
    14    14     5    1
    15     5    16    1
