@<TRIPOS>MOLECULE
2
 16 15 0 0 0
SMALL
GASTEIGER

@<TRIPOS>ATOM
      1 SI         -1.4015    1.8721    1.6734 Si      1  UNL1        0.0000
      2 C           0.0324    2.9621    1.0612 C.3     1  UNL1        0.0000
      3 C          -2.3229    2.6974    3.1326 C.3     1  UNL1        0.0000
      4 C          -0.7992    0.1406    2.1986 C.3     1  UNL1        0.0000
      5 C          -2.6446    1.6832    0.2289 C.3     1  UNL1        0.0000
      6 H           0.5073    2.4818    0.2037 H       1  UNL1        0.0000
      7 H          -0.3705    3.9143    0.6985 H       1  UNL1        0.0000
      8 H          -2.6220    3.7167    2.9024 H       1  UNL1        0.0000
      9 H          -3.2178    2.1454    3.4040 H       1  UNL1        0.0000
     10 H          -1.6748    2.7237    4.0034 H       1  UNL1        0.0000
     11 H          -0.0521    0.2399    2.9800 H       1  UNL1        0.0000
     12 H          -1.6120   -0.4678    2.5836 H       1  UNL1        0.0000
     13 H          -0.3455   -0.3965    1.3716 H       1  UNL1        0.0000
     14 H          -2.1804    1.2210   -0.6356 H       1  UNL1        0.0000
     15 H          -3.4829    1.0611    0.5222 H       1  UNL1        0.0000
     16 H          -3.0428    2.6423   -0.0856 H       1  UNL1        0.0000
@<TRIPOS>BOND
     1    14     5    1
     2    16     5    1
     3     6     2    1
     4     5    15    1
     5     5     1    1
     6     7     2    1
     7     2     1    1
     8    13     4    1
     9     1     4    1
    10     1     3    1
    11     4    12    1
    12     4    11    1
    13     8     3    1
    14     3     9    1
    15     3    10    1
