@<TRIPOS>MOLECULE
1
 4 3 0 0 0
SMALL
GASTEIGER

@<TRIPOS>ATOM
      1 C           2.6467    1.6226    2.0033 C.3     1  UNL1       -0.0681
      2 H           2.4915    0.7793    2.6758 H       1  UNL1        0.0227
      3 H           2.3528    1.2830    1.0095 H       1  UNL1        0.0227
      4 H           3.7196    1.8184    1.9967 H       1  UNL1        0.0227
@<TRIPOS>BOND
     1     3     1    1
     2     4     1    1
     3     1     2    1
