@<TRIPOS>MOLECULE
1
 22 22 0 0 0
SMALL
GASTEIGER

@<TRIPOS>ATOM
      1 C           0.6812    7.0575    5.4794 C.3     1  UNL1       -0.0241
      2 H           1.3074    6.3457    4.9315 H       1  UNL1        0.0315
      3 C           0.9427    8.4599    5.0157 C.3     1  UNL1       -0.0065
      4 C           2.3890    8.5929    4.5721 C.ar    1  UNL1       -0.0414
      5 C           3.3761    8.0906    5.4162 C.ar    1  UNL1       -0.0580
      6 H           3.0715    7.6433    6.3518 H       1  UNL1        0.0620
      7 C           4.7114    8.1449    5.0675 C.ar    1  UNL1       -0.0615
      8 H           5.4627    7.7433    5.7331 H       1  UNL1        0.0618
      9 C           5.0917    8.7138    3.8629 C.ar    1  UNL1       -0.0617
     10 H           6.1341    8.7537    3.5828 H       1  UNL1        0.0618
     11 C           4.1230    9.2318    3.0238 C.ar    1  UNL1       -0.0615
     12 H           4.4095    9.6861    2.0857 H       1  UNL1        0.0618
     13 C           2.7832    9.1731    3.3747 C.ar    1  UNL1       -0.0580
     14 H           2.0515    9.5835    2.6975 H       1  UNL1        0.0620
     15 C           0.6822    9.4757    6.1376 C.3     1  UNL1       -0.0555
     16 H           1.3582    9.2938    6.9686 H       1  UNL1        0.0238
     17 H           0.8413   10.4889    5.7736 H       1  UNL1        0.0238
     18 H          -0.3410    9.3726    6.4910 H       1  UNL1        0.0238
     19 C          -0.0558    8.7202    3.8725 C.3     1  UNL1       -0.0555
     20 H           0.1809    8.0990    3.0121 H       1  UNL1        0.0238
     21 H          -1.0533    8.4497    4.2207 H       1  UNL1        0.0238
     22 H          -0.0512    9.7672    3.5772 H       1  UNL1        0.0238
@<TRIPOS>BOND
     1    12    11    1
     2    14    13    1
     3    20    19    1
     4    11    13   ar
     5    11     9   ar
     6    13     4   ar
     7    22    19    1
     8    10     9    1
     9     9     7   ar
    10    19    21    1
    11    19     3    1
    12     4     3    1
    13     4     5   ar
    14     2     1    1
    15     3     1    1
    16     3    15    1
    17     7     5   ar
    18     7     8    1
    19     5     6    1
    20    17    15    1
    21    15    18    1
    22    15    16    1
