@<TRIPOS>MOLECULE
1
 28 28 0 0 0
SMALL
GASTEIGER

@<TRIPOS>ATOM
      1 C          11.0797    8.3643   13.0170 C.3     1  UNL1       -0.0051
      2 C          11.4009    9.7020   13.4266 C.3     1  UNL1        0.0052
      3 C          12.1800    9.6180   14.6325 C.2     1  UNL1       -0.0658
      4 C          12.3333    8.2557   14.9709 C.2     1  UNL1       -0.0655
      5 C          11.6108    7.4684   14.0136 C.3     1  UNL1        0.0081
      6 C          10.5028    7.9663   11.6894 C.3     1  UNL1       -0.0574
      7 H           9.7580    8.6860   11.3536 H       1  UNL1        0.0236
      8 H          10.0265    6.9899   11.7515 H       1  UNL1        0.0236
      9 H          11.2920    7.9179   10.9365 H       1  UNL1        0.0236
     10 C          11.2364   10.9350   12.5843 C.3     1  UNL1       -0.0545
     11 H          12.1070   11.0641   11.9377 H       1  UNL1        0.0239
     12 H          11.1399   11.8281   13.2005 H       1  UNL1        0.0239
     13 H          10.3535   10.8593   11.9519 H       1  UNL1        0.0239
     14 C          12.9120   10.7628   15.2679 C.3     1  UNL1       -0.0430
     15 H          13.0917   10.5788   16.3254 H       1  UNL1        0.0275
     16 H          12.3602   11.6967   15.1657 H       1  UNL1        0.0275
     17 H          13.8814   10.8930   14.7810 H       1  UNL1        0.0275
     18 C          13.2873    7.7182   15.9910 C.3     1  UNL1       -0.0430
     19 H          14.2978    7.7318   15.5742 H       1  UNL1        0.0275
     20 H          13.0433    6.6930   16.2580 H       1  UNL1        0.0275
     21 H          13.2933    8.3188   16.8974 H       1  UNL1        0.0275
     22 C          11.6664    5.9711   13.8954 C.3     1  UNL1       -0.0451
     23 H          10.7627    5.6070   13.4003 H       1  UNL1        0.0271
     24 H          11.6986    5.5203   14.8902 H       1  UNL1        0.0271
     25 C          12.8958    5.5318   13.0946 C.3     1  UNL1       -0.0644
     26 H          12.8667    5.9535   12.0929 H       1  UNL1        0.0230
     27 H          12.9247    4.4483   13.0132 H       1  UNL1        0.0230
     28 H          13.8086    5.8663   13.5816 H       1  UNL1        0.0230
@<TRIPOS>BOND
     1     9     6    1
     2     7     6    1
     3     6     8    1
     4     6     1    1
     5    11    10    1
     6    13    10    1
     7    26    25    1
     8    10    12    1
     9    10     2    1
    10    27    25    1
    11     1     2    1
    12     1     5    1
    13    25    28    1
    14    25    22    1
    15    23    22    1
    16     2     3    1
    17    22     5    1
    18    22    24    1
    19     5     4    1
    20     3     4    2
    21     3    14    1
    22    17    14    1
    23     4    18    1
    24    16    14    1
    25    14    15    1
    26    19    18    1
    27    18    20    1
    28    18    21    1
