@<TRIPOS>MOLECULE
2
 17 16 0 0 0
SMALL
GASTEIGER

@<TRIPOS>ATOM
      1 SI          6.5721    2.7663    1.2902 Si      1  UNL1        0.0000
      2 C           3.6997    2.5174    1.2024 C.2     1  UNL1        0.0000
      3 C           4.7768    2.8924    1.8950 C.2     1  UNL1        0.0000
      4 C           7.6968    2.3850    2.7864 C.3     1  UNL1        0.0000
      5 C           6.7352    1.3828   -0.0138 C.3     1  UNL1        0.0000
      6 C           7.0875    4.4392    0.5197 C.3     1  UNL1        0.0000
      7 H           3.9015    2.0819    0.2066 H       1  UNL1        0.0000
      8 H           4.6383    3.3318    2.8914 H       1  UNL1        0.0000
      9 H           7.6042    3.1454    3.5559 H       1  UNL1        0.0000
     10 H           7.4530    1.4287    3.2390 H       1  UNL1        0.0000
     11 H           8.7402    2.3490    2.4896 H       1  UNL1        0.0000
     12 H           6.3159    0.4473    0.3447 H       1  UNL1        0.0000
     13 H           6.2203    1.6427   -0.9336 H       1  UNL1        0.0000
     14 H           7.7760    1.2015   -0.2647 H       1  UNL1        0.0000
     15 H           6.4407    4.7067   -0.3107 H       1  UNL1        0.0000
     16 H           7.0374    5.2443    1.2468 H       1  UNL1        0.0000
     17 H           8.1056    4.4011    0.1440 H       1  UNL1        0.0000
@<TRIPOS>BOND
     1    13     5    1
     2    15     6    1
     3    14     5    1
     4     5    12    1
     5     5     1    1
     6    17     6    1
     7     7     2    1
     8     6    16    1
     9     6     1    1
    10     2     3    2
    11     1     3    1
    12     1     4    1
    13     3     8    1
    14    11     4    1
    15     4    10    1
    16     4     9    1
