@<TRIPOS>MOLECULE
1
 22 22 0 0 0
SMALL
GASTEIGER

@<TRIPOS>ATOM
      1 C          -0.5372    2.6873    0.5108 C.3     1  UNL1        0.0119
      2 C          -1.3477    1.8540    1.3889 C.2     1  UNL1       -0.0615
      3 C          -0.6301    0.7138    1.6864 C.2     1  UNL1       -0.0480
      4 C           0.6130    0.7534    0.9775 C.2     1  UNL1       -0.0480
      5 C           0.6637    1.9142    0.2368 C.2     1  UNL1       -0.0615
      6 C           1.7159    2.3233   -0.7541 C.3     1  UNL1       -0.0426
      7 H           1.6313    3.3868   -0.9972 H       1  UNL1        0.0275
      8 H           2.7211    2.1327   -0.3754 H       1  UNL1        0.0275
      9 H           1.6061    1.7542   -1.6799 H       1  UNL1        0.0275
     10 C          -2.7751    2.1721    1.7362 C.3     1  UNL1       -0.0426
     11 H          -3.1200    1.5774    2.5798 H       1  UNL1        0.0275
     12 H          -2.9037    3.2295    1.9822 H       1  UNL1        0.0275
     13 H          -3.4248    1.9457    0.8869 H       1  UNL1        0.0275
     14 C          -1.0331   -0.4190    2.5778 C.3     1  UNL1       -0.0395
     15 H          -0.3218   -0.5490    3.3968 H       1  UNL1        0.0278
     16 H          -2.0202   -0.2556    3.0047 H       1  UNL1        0.0278
     17 H          -1.0576   -1.3523    2.0149 H       1  UNL1        0.0278
     18 C           1.6455   -0.3279    1.0165 C.3     1  UNL1       -0.0395
     19 H           1.7158   -0.7686    2.0099 H       1  UNL1        0.0278
     20 H           1.3909   -1.1264    0.3168 H       1  UNL1        0.0278
     21 H           2.6236    0.0604    0.7394 H       1  UNL1        0.0278
     22 H          -1.0148    3.2376   -0.3042 H       1  UNL1        0.0400
@<TRIPOS>BOND
     1     9     6    1
     2     7     6    1
     3     6     8    1
     4     6     5    1
     5    22     1    1
     6     5     1    1
     7     5     4    2
     8    20    18    1
     9     1     2    1
    10    21    18    1
    11    13    10    1
    12     4    18    1
    13     4     3    1
    14    18    19    1
    15     2     3    2
    16     2    10    1
    17     3    14    1
    18    10    12    1
    19    10    11    1
    20    17    14    1
    21    14    16    1
    22    14    15    1
