@<TRIPOS>MOLECULE
4
 22 22 0 0 0
SMALL
GASTEIGER

@<TRIPOS>ATOM
      1 C           2.7401    4.1456    5.0370 C.2     1  UNL1       -0.0480
      2 C           3.1199    5.3864    4.4302 C.2     1  UNL1       -0.0480
      3 C           3.0495    5.2505    3.0623 C.2     1  UNL1       -0.0615
      4 C           2.5495    3.9176    2.7592 C.3     1  UNL1        0.0119
      5 C           2.4189    3.2474    4.0429 C.2     1  UNL1       -0.0615
      6 C           2.7841    3.8966    6.5126 C.3     1  UNL1       -0.0395
      7 H           2.2608    2.9790    6.7738 H       1  UNL1        0.0278
      8 H           3.8184    3.7940    6.8462 H       1  UNL1        0.0278
      9 H           2.3427    4.7235    7.0706 H       1  UNL1        0.0278
     10 C           3.5264    6.6043    5.1966 C.3     1  UNL1       -0.0395
     11 H           3.8541    7.3906    4.5217 H       1  UNL1        0.0278
     12 H           2.6961    6.9893    5.7937 H       1  UNL1        0.0278
     13 H           4.3440    6.3724    5.8794 H       1  UNL1        0.0278
     14 C           3.4722    6.2477    2.0204 C.3     1  UNL1       -0.0426
     15 H           2.9575    7.2027    2.1404 H       1  UNL1        0.0275
     16 H           4.5443    6.4404    2.0939 H       1  UNL1        0.0275
     17 H           3.2644    5.8669    1.0171 H       1  UNL1        0.0275
     18 C           2.0934    1.7890    4.1780 C.3     1  UNL1       -0.0426
     19 H           1.4873    1.4525    3.3352 H       1  UNL1        0.0275
     20 H           3.0114    1.1961    4.1934 H       1  UNL1        0.0275
     21 H           1.5561    1.5793    5.1027 H       1  UNL1        0.0275
     22 H           2.9681    3.3621    1.9150 H       1  UNL1        0.0400
@<TRIPOS>BOND
     1    17    14    1
     2    22     4    1
     3    14    16    1
     4    14    15    1
     5    14     3    1
     6     4     3    1
     7     4     5    1
     8     3     2    2
     9    19    18    1
    10     5    18    1
    11     5     1    2
    12    18    20    1
    13    18    21    1
    14     2     1    1
    15     2    10    1
    16    11    10    1
    17     1     6    1
    18    10    12    1
    19    10    13    1
    20     6     7    1
    21     6     8    1
    22     6     9    1
