@<TRIPOS>MOLECULE
2
 16 15 0 0 0
SMALL
GASTEIGER

@<TRIPOS>ATOM
      1 SI         -2.1367    6.9461    1.5266 Si      1  UNL1        0.0000
      2 C          -0.3042    6.6084    1.8225 C.3     1  UNL1        0.0000
      3 H           0.0174    7.1398    2.7274 H       1  UNL1        0.0000
      4 H           0.2623    7.0583    0.9963 H       1  UNL1        0.0000
      5 C          -3.1750    6.2808    2.9970 C.3     1  UNL1        0.0000
      6 H          -4.2283    6.2294    2.7393 H       1  UNL1        0.0000
      7 H          -2.8587    5.2824    3.2913 H       1  UNL1        0.0000
      8 H          -3.0869    6.9287    3.8640 H       1  UNL1        0.0000
      9 C          -2.5925    8.7952    1.3206 C.3     1  UNL1        0.0000
     10 H          -3.6632    8.9367    1.2086 H       1  UNL1        0.0000
     11 H          -2.2733    9.3776    2.1795 H       1  UNL1        0.0000
     12 H          -2.1127    9.2187    0.4440 H       1  UNL1        0.0000
     13 C          -2.6945    6.0329   -0.0633 C.3     1  UNL1        0.0000
     14 H          -3.6490    6.4099   -0.4172 H       1  UNL1        0.0000
     15 H          -1.9747    6.1712   -0.8654 H       1  UNL1        0.0000
     16 H          -2.8084    4.9649    0.1005 H       1  UNL1        0.0000
@<TRIPOS>BOND
     1    15    13    1
     2    14    13    1
     3    13    16    1
     4    13     1    1
     5    12     9    1
     6     4     2    1
     7    10     9    1
     8     9     1    1
     9     9    11    1
    10     1     2    1
    11     1     5    1
    12     2     3    1
    13     6     5    1
    14     5     7    1
    15     5     8    1
