@<TRIPOS>MOLECULE
1
 11 11 0 0 0
SMALL
GASTEIGER

@<TRIPOS>ATOM
      1 C           3.0065   12.3278   11.6392 C.ar    1  UNL1       -0.0179
      2 C           3.5437   13.5005   12.1684 C.ar    1  UNL1       -0.0540
      3 H           4.2770   13.4499   12.9643 H       1  UNL1        0.0624
      4 C           3.1583   14.7540   11.7222 C.ar    1  UNL1       -0.0612
      5 H           3.6004   15.6393   12.1597 H       1  UNL1        0.0618
      6 C           2.2066   14.8735   10.7266 C.ar    1  UNL1       -0.0617
      7 H           1.9012   15.8485   10.3752 H       1  UNL1        0.0618
      8 C           1.6459   13.7261   10.1956 C.ar    1  UNL1       -0.0612
      9 H           0.8920   13.8013    9.4242 H       1  UNL1        0.0618
     10 C           2.0376   12.4754   10.6472 C.ar    1  UNL1       -0.0540
     11 H           1.5661   11.6075   10.2151 H       1  UNL1        0.0624
@<TRIPOS>BOND
     1     9     8    1
     2     8    10   ar
     3     8     6   ar
     4    11    10    1
     5     7     6    1
     6    10     1   ar
     7     6     4   ar
     8     1     2   ar
     9     4     5    1
    10     4     2   ar
    11     2     3    1
