@<TRIPOS>MOLECULE
1
 17 16 0 0 0
SMALL
GASTEIGER

@<TRIPOS>ATOM
      1 C           8.4256   17.1529    8.0979 C.3     1  UNL1        0.1163
      2 C           9.0190   17.2248    9.4397 C.2     1  UNL1        0.3162
      3 O           9.1456   16.2461   10.1484 O.2     1  UNL1       -0.2501
      4 O           9.2700   18.4769    9.8532 O.3     1  UNL1       -0.4675
      5 C           9.8859   18.5918   11.1268 C.3     1  UNL1        0.0817
      6 C           9.2454   17.2734    7.0434 C.3     1  UNL1        0.0882
      7 C          10.6834   17.5032    7.1991 C.2     1  UNL1        0.3119
      8 O          11.2724   17.7618    6.0115 O.3     1  UNL1       -0.4677
      9 O          11.2977   17.4656    8.2409 O.2     1  UNL1       -0.2505
     10 C          12.6688   18.0010    6.0552 C.3     1  UNL1        0.0817
     11 H           8.8856   17.2085    6.0239 H       1  UNL1        0.0433
     12 H           9.9050   19.6532   11.3632 H       1  UNL1        0.0661
     13 H           9.3179   18.0380   11.8782 H       1  UNL1        0.0661
     14 H          10.9001   18.1908   11.0775 H       1  UNL1        0.0661
     15 H          12.9893   18.1327    5.0247 H       1  UNL1        0.0661
     16 H          13.1860   17.1550    6.5135 H       1  UNL1        0.0661
     17 H          12.8828   18.8987    6.6399 H       1  UNL1        0.0661
@<TRIPOS>BOND
     1    15    10    1
     2     8    10    1
     3     8     7    1
     4    11     6    1
     5    10    16    1
     6    10    17    1
     7     6     7    1
     8     6     1    1
     9     7     9    2
    10     1     2    1
    11     2     4    1
    12     2     3    2
    13     4     5    1
    14    14     5    1
    15     5    12    1
    16     5    13    1
