@<TRIPOS>MOLECULE
1
 4 3 0 0 0
SMALL
GASTEIGER

@<TRIPOS>ATOM
      1 C           0.0002    0.0000    2.0044 C.3     1  UNL1       -0.0681
      2 H           0.3069   -0.9662    2.4072 H       1  UNL1        0.0227
      3 H           0.6838    0.7486    2.4070 H       1  UNL1        0.0227
      4 H          -0.9897    0.2177    2.4076 H       1  UNL1        0.0227
@<TRIPOS>BOND
     1     1     3    1
     2     1     2    1
     3     1     4    1
