@<TRIPOS>MOLECULE
1
 4 3 0 0 0
SMALL
GASTEIGER

@<TRIPOS>ATOM
      1 C           0.0001   -0.0001    2.1428 C.3     1  UNL1       -0.0681
      2 H           0.8025    0.6176    2.5614 H       1  UNL1        0.0227
      3 H          -0.9360    0.3861    2.5613 H       1  UNL1        0.0227
      4 H           0.1336   -1.0038    2.5615 H       1  UNL1        0.0227
@<TRIPOS>BOND
     1     1     3    1
     2     1     2    1
     3     1     4    1
