@<TRIPOS>MOLECULE
2
 16 15 0 0 0
SMALL
GASTEIGER

@<TRIPOS>ATOM
      1 SI          0.2628   12.3321    2.1416 Si      1  UNL1        0.0000
      2 C          -1.6149   12.1760    2.1861 C.3     1  UNL1        0.0000
      3 H          -1.9448   11.7429    1.2357 H       1  UNL1        0.0000
      4 H          -2.0299   13.1941    2.1978 H       1  UNL1        0.0000
      5 C           0.9094   13.6504    0.9022 C.3     1  UNL1        0.0000
      6 H           0.5182   14.6349    1.1393 H       1  UNL1        0.0000
      7 H           0.6096   13.4179   -0.1153 H       1  UNL1        0.0000
      8 H           1.9930   13.7181    0.9160 H       1  UNL1        0.0000
      9 C           1.0610   10.6784    1.5821 C.3     1  UNL1        0.0000
     10 H           0.7210    9.8442    2.1869 H       1  UNL1        0.0000
     11 H           2.1424   10.7237    1.6643 H       1  UNL1        0.0000
     12 H           0.8278   10.4593    0.5437 H       1  UNL1        0.0000
     13 C           0.9417   12.8103    3.8653 C.3     1  UNL1        0.0000
     14 H           0.7883   13.8664    4.0649 H       1  UNL1        0.0000
     15 H           2.0074   12.6182    3.9437 H       1  UNL1        0.0000
     16 H           0.4411   12.2440    4.6479 H       1  UNL1        0.0000
@<TRIPOS>BOND
     1     7     5    1
     2    12     9    1
     3     5     8    1
     4     5     6    1
     5     5     1    1
     6     3     2    1
     7     9    11    1
     8     9     1    1
     9     9    10    1
    10     1     2    1
    11     1    13    1
    12     2     4    1
    13    13    15    1
    14    13    14    1
    15    13    16    1
