@<TRIPOS>MOLECULE
4
 37 36 0 0 0
SMALL
GASTEIGER

@<TRIPOS>ATOM
      1 SI          5.9145    2.2885    1.6232 Si      1  UNL1        0.0000
      2 O           4.1462    3.2368   -0.4769 O.2     1  UNL1        0.0000
      3 N           1.3594    6.3987   -1.1662 N.3     1  UNL1        0.0000
      4 C           1.7004    6.7960    0.0294 C.3     1  UNL1        0.0000
      5 C           2.5335    5.8170    0.8172 C.3     1  UNL1        0.0000
      6 C           3.9997    5.8818    0.3310 C.3     1  UNL1        0.0000
      7 C           4.8206    4.8475    1.0339 C.2     1  UNL1        0.0000
      8 C           4.8998    3.5735    0.6332 C.2     1  UNL1        0.0000
      9 C           0.5952    7.2397   -2.0655 C.3     1  UNL1        0.0000
     10 C           1.6181    5.1096   -1.7936 C.3     1  UNL1        0.0000
     11 C           4.7830    0.8594    2.2063 C.3     1  UNL1        0.0000
     12 C           6.6270    3.1507    3.1617 C.3     1  UNL1        0.0000
     13 C           7.3792    1.6007    0.6036 C.3     1  UNL1        0.0000
     14 C           4.5083    2.0884   -1.1961 C.3     1  UNL1        0.0000
     15 H           2.5201    6.0752    1.8773 H       1  UNL1        0.0000
     16 H           2.1776    4.7871    0.7280 H       1  UNL1        0.0000
     17 H           4.3931    6.8806    0.5271 H       1  UNL1        0.0000
     18 H           4.0392    5.6982   -0.7440 H       1  UNL1        0.0000
     19 H           5.3298    5.1471    1.9324 H       1  UNL1        0.0000
     20 H           0.6374    8.2785   -1.7458 H       1  UNL1        0.0000
     21 H          -0.4483    6.9164   -2.0893 H       1  UNL1        0.0000
     22 H           1.0021    7.1632   -3.0748 H       1  UNL1        0.0000
     23 H           2.1836    4.4339   -1.1627 H       1  UNL1        0.0000
     24 H           2.1833    5.2650   -2.7147 H       1  UNL1        0.0000
     25 H           0.6649    4.6437   -2.0535 H       1  UNL1        0.0000
     26 H           4.6414    0.0979    1.4443 H       1  UNL1        0.0000
     27 H           3.8006    1.2243    2.4925 H       1  UNL1        0.0000
     28 H           5.2117    0.3668    3.0740 H       1  UNL1        0.0000
     29 H           5.8462    3.5521    3.7991 H       1  UNL1        0.0000
     30 H           7.2933    3.9647    2.8964 H       1  UNL1        0.0000
     31 H           7.1990    2.4440    3.7549 H       1  UNL1        0.0000
     32 H           7.0727    0.8509   -0.1196 H       1  UNL1        0.0000
     33 H           8.1070    1.1348    1.2615 H       1  UNL1        0.0000
     34 H           7.8922    2.3917    0.0637 H       1  UNL1        0.0000
     35 H           3.8078    2.0224   -2.0292 H       1  UNL1        0.0000
     36 H           4.4267    1.1846   -0.5878 H       1  UNL1        0.0000
     37 H           5.5258    2.1672   -1.5890 H       1  UNL1        0.0000
@<TRIPOS>BOND
     1    22     9    1
     2    24    10    1
     3    21     9    1
     4     9    20    1
     5     9     3    1
     6    25    10    1
     7    35    14    1
     8    10     3    1
     9    10    23    1
    10    37    14    1
    11    14    36    1
    12    14     2    1
    13     3     4    1
    14    18     6    1
    15     2     8    1
    16    32    13    1
    17     4     5    1
    18    34    13    1
    19     6    17    1
    20     6     5    1
    21     6     7    1
    22    13    33    1
    23    13     1    1
    24     8     7    2
    25     8     1    1
    26    16     5    1
    27     5    15    1
    28     7    19    1
    29    26    11    1
    30     1    11    1
    31     1    12    1
    32    11    27    1
    33    11    28    1
    34    30    12    1
    35    12    31    1
    36    12    29    1
