@<TRIPOS>MOLECULE
2
 16 15 0 0 0
SMALL
GASTEIGER

@<TRIPOS>ATOM
      1 SI          9.5269    4.9379    4.8592 Si      1  UNL1        0.0000
      2 C           9.9222    5.8659    6.4530 C.3     1  UNL1        0.0000
      3 H           9.1589    5.5548    7.1883 H       1  UNL1        0.0000
      4 H           9.6990    6.9318    6.2677 H       1  UNL1        0.0000
      5 C          10.3923    3.2241    4.8156 C.3     1  UNL1        0.0000
      6 H          10.4811    2.8483    3.8009 H       1  UNL1        0.0000
      7 H          11.3937    3.2858    5.2381 H       1  UNL1        0.0000
      8 H           9.8383    2.4826    5.3837 H       1  UNL1        0.0000
      9 C           7.6534    4.5926    4.5906 C.3     1  UNL1        0.0000
     10 H           7.4749    3.9987    3.6989 H       1  UNL1        0.0000
     11 H           7.2272    4.0527    5.4321 H       1  UNL1        0.0000
     12 H           7.0935    5.5169    4.4835 H       1  UNL1        0.0000
     13 C          10.1092    5.8885    3.2975 C.3     1  UNL1        0.0000
     14 H           9.8014    5.3718    2.3936 H       1  UNL1        0.0000
     15 H           9.6861    6.8875    3.2571 H       1  UNL1        0.0000
     16 H          11.1900    5.9849    3.2630 H       1  UNL1        0.0000
@<TRIPOS>BOND
     1    14    13    1
     2    15    13    1
     3    16    13    1
     4    13     1    1
     5    10     9    1
     6     6     5    1
     7    12     9    1
     8     9     1    1
     9     9    11    1
    10     5     1    1
    11     5     7    1
    12     5     8    1
    13     1     2    1
    14     4     2    1
    15     2     3    1
