@<TRIPOS>MOLECULE
2
 16 15 0 0 0
SMALL
GASTEIGER

@<TRIPOS>ATOM
      1 SI         15.3874    4.3969    7.6892 Si      1  UNL1        0.0000
      2 C          13.6618    4.2992    6.9246 C.3     1  UNL1        0.0000
      3 H          13.3675    3.2387    6.9567 H       1  UNL1        0.0000
      4 H          13.7885    4.4965    5.8468 H       1  UNL1        0.0000
      5 C          15.6241    6.0031    8.7148 C.3     1  UNL1        0.0000
      6 H          16.5121    5.9558    9.3384 H       1  UNL1        0.0000
      7 H          15.7336    6.8694    8.0679 H       1  UNL1        0.0000
      8 H          14.7725    6.1920    9.3672 H       1  UNL1        0.0000
      9 C          15.7290    2.9135    8.8615 C.3     1  UNL1        0.0000
     10 H          16.7428    2.9449    9.2483 H       1  UNL1        0.0000
     11 H          15.0579    2.9047    9.7147 H       1  UNL1        0.0000
     12 H          15.6098    1.9685    8.3399 H       1  UNL1        0.0000
     13 C          16.8131    4.3774    6.4002 C.3     1  UNL1        0.0000
     14 H          17.7856    4.4725    6.8742 H       1  UNL1        0.0000
     15 H          16.8166    3.4542    5.8285 H       1  UNL1        0.0000
     16 H          16.7163    5.1958    5.6918 H       1  UNL1        0.0000
@<TRIPOS>BOND
     1    16    13    1
     2    15    13    1
     3     4     2    1
     4    13    14    1
     5    13     1    1
     6     2     3    1
     7     2     1    1
     8     1     5    1
     9     1     9    1
    10     7     5    1
    11    12     9    1
    12     5     6    1
    13     5     8    1
    14     9    10    1
    15     9    11    1
