@<TRIPOS>MOLECULE
2
 16 15 0 0 0
SMALL
GASTEIGER

@<TRIPOS>ATOM
      1 SI          0.7565    5.2081    2.6464 Si      1  UNL1        0.0000
      2 C           2.4484    5.2828    3.4768 C.3     1  UNL1        0.0000
      3 H           2.3162    5.0276    4.5360 H       1  UNL1        0.0000
      4 H           2.7828    6.3271    3.4801 H       1  UNL1        0.0000
      5 C           0.5065    6.6584    1.4138 C.3     1  UNL1        0.0000
      6 H          -0.5033    6.6601    1.0157 H       1  UNL1        0.0000
      7 H           0.6656    7.6156    1.9007 H       1  UNL1        0.0000
      8 H           1.1854    6.5990    0.5690 H       1  UNL1        0.0000
      9 C           0.5044    3.5802    1.6620 C.3     1  UNL1        0.0000
     10 H          -0.4116    3.6084    1.0784 H       1  UNL1        0.0000
     11 H           1.3242    3.3876    0.9718 H       1  UNL1        0.0000
     12 H           0.4313    2.7233    2.3262 H       1  UNL1        0.0000
     13 C          -0.7049    5.3122    3.8873 C.3     1  UNL1        0.0000
     14 H          -1.6652    5.2200    3.3892 H       1  UNL1        0.0000
     15 H          -0.6462    4.5232    4.6313 H       1  UNL1        0.0000
     16 H          -0.7008    6.2587    4.4186 H       1  UNL1        0.0000
@<TRIPOS>BOND
     1     8     5    1
     2    11     9    1
     3     6     5    1
     4    10     9    1
     5     5     7    1
     6     5     1    1
     7     9    12    1
     8     9     1    1
     9     1     2    1
    10     1    13    1
    11    14    13    1
    12     2     4    1
    13     2     3    1
    14    13    16    1
    15    13    15    1
