@<TRIPOS>MOLECULE
2
 16 15 0 0 0
SMALL
GASTEIGER

@<TRIPOS>ATOM
      1 SI          2.3908    7.0937   11.9653 Si      1  UNL1        0.0000
      2 C           2.7356    8.3431   13.3352 C.3     1  UNL1        0.0000
      3 H           3.8307    8.3779   13.4880 H       1  UNL1        0.0000
      4 H           2.3328    7.9136   14.2723 H       1  UNL1        0.0000
      5 C           3.0234    7.7790   10.2872 C.3     1  UNL1        0.0000
      6 H           2.8625    7.0665    9.4847 H       1  UNL1        0.0000
      7 H           2.5008    8.6952   10.0202 H       1  UNL1        0.0000
      8 H           4.0876    7.9947   10.3178 H       1  UNL1        0.0000
      9 C           3.1970    5.3678   12.2011 C.3     1  UNL1        0.0000
     10 H           2.9454    4.6905   11.3902 H       1  UNL1        0.0000
     11 H           4.2801    5.4395   12.2416 H       1  UNL1        0.0000
     12 H           2.8669    4.9056   13.1267 H       1  UNL1        0.0000
     13 C           0.5012    6.8318   11.8053 C.3     1  UNL1        0.0000
     14 H           0.2574    6.1691   10.9812 H       1  UNL1        0.0000
     15 H           0.0870    6.3939   12.7081 H       1  UNL1        0.0000
     16 H          -0.0073    7.7772   11.6312 H       1  UNL1        0.0000
@<TRIPOS>BOND
     1     6     5    1
     2     7     5    1
     3     5     8    1
     4     5     1    1
     5    14    13    1
     6    10     9    1
     7    16    13    1
     8    13     1    1
     9    13    15    1
    10     1     9    1
    11     1     2    1
    12     9    11    1
    13     9    12    1
    14     2     3    1
    15     2     4    1
