@<TRIPOS>MOLECULE
2
 16 15 0 0 0
SMALL
GASTEIGER

@<TRIPOS>ATOM
      1 SI          5.4742    5.3308   10.7157 Si      1  UNL1        0.0000
      2 C           4.4162    6.6583   11.5288 C.3     1  UNL1        0.0000
      3 H           3.4024    6.6041   11.1084 H       1  UNL1        0.0000
      4 H           4.8111    7.6285   11.2003 H       1  UNL1        0.0000
      5 C           4.8381    3.5524   11.0452 C.3     1  UNL1        0.0000
      6 H           5.3932    2.8334   10.4504 H       1  UNL1        0.0000
      7 H           4.9637    3.2733   12.0873 H       1  UNL1        0.0000
      8 H           3.7897    3.4385   10.7899 H       1  UNL1        0.0000
      9 C           7.2674    5.3773   11.3895 C.3     1  UNL1        0.0000
     10 H           7.8693    4.5825   10.9598 H       1  UNL1        0.0000
     11 H           7.7586    6.3165   11.1546 H       1  UNL1        0.0000
     12 H           7.2750    5.2501   12.4687 H       1  UNL1        0.0000
     13 C           5.6045    5.5049    8.8065 C.3     1  UNL1        0.0000
     14 H           6.2579    4.7533    8.3739 H       1  UNL1        0.0000
     15 H           4.6310    5.3998    8.3375 H       1  UNL1        0.0000
     16 H           5.9954    6.4783    8.5253 H       1  UNL1        0.0000
@<TRIPOS>BOND
     1    15    13    1
     2    14    13    1
     3    16    13    1
     4    13     1    1
     5     6     5    1
     6     1     5    1
     7     1     9    1
     8     1     2    1
     9     8     5    1
    10    10     9    1
    11     5     7    1
    12     3     2    1
    13    11     9    1
    14     4     2    1
    15     9    12    1
