@<TRIPOS>MOLECULE
2
 16 15 0 0 0
SMALL
GASTEIGER

@<TRIPOS>ATOM
      1 SI          5.1207    5.2085   17.0320 Si      1  UNL1        0.0000
      2 C           5.5491    5.3203   15.1969 C.3     1  UNL1        0.0000
      3 H           5.4686    4.3169   14.7599 H       1  UNL1        0.0000
      4 H           6.6109    5.5807   15.1139 H       1  UNL1        0.0000
      5 C           5.0604    3.4080   17.6954 C.3     1  UNL1        0.0000
      6 H           6.0279    2.9244   17.6051 H       1  UNL1        0.0000
      7 H           4.7741    3.3758   18.7421 H       1  UNL1        0.0000
      8 H           4.3452    2.8058   17.1429 H       1  UNL1        0.0000
      9 C           3.4155    5.9879   17.4458 C.3     1  UNL1        0.0000
     10 H           3.2805    6.0937   18.5188 H       1  UNL1        0.0000
     11 H           3.3003    6.9766   17.0047 H       1  UNL1        0.0000
     12 H           2.5970    5.3721   17.0829 H       1  UNL1        0.0000
     13 C           6.4301    6.1279   18.0883 C.3     1  UNL1        0.0000
     14 H           7.3938    5.6316   18.0337 H       1  UNL1        0.0000
     15 H           6.5669    7.1471   17.7426 H       1  UNL1        0.0000
     16 H           6.1424    6.1717   19.1337 H       1  UNL1        0.0000
@<TRIPOS>BOND
     1     3     2    1
     2     4     2    1
     3     2     1    1
     4    11     9    1
     5     1     9    1
     6     1     5    1
     7     1    13    1
     8    12     9    1
     9     8     5    1
    10     9    10    1
    11     6     5    1
    12     5     7    1
    13    15    13    1
    14    14    13    1
    15    13    16    1
