@<TRIPOS>MOLECULE
2
 16 15 0 0 0
SMALL
GASTEIGER

@<TRIPOS>ATOM
      1 SI         -0.1752   12.9426   11.7098 Si      1  UNL1        0.0000
      2 C           0.3726   11.1336   11.7700 C.3     1  UNL1        0.0000
      3 H           0.7166   10.8672   10.7546 H       1  UNL1        0.0000
      4 H          -0.5426   10.5337   11.9144 H       1  UNL1        0.0000
      5 C          -0.6759   13.5795   13.4485 C.3     1  UNL1        0.0000
      6 H          -0.8828   14.6453   13.4298 H       1  UNL1        0.0000
      7 H          -1.5711   13.0848   13.8129 H       1  UNL1        0.0000
      8 H           0.1178   13.4168   14.1753 H       1  UNL1        0.0000
      9 C          -1.6716   13.2733   10.5512 C.3     1  UNL1        0.0000
     10 H          -1.9667   14.3184   10.5599 H       1  UNL1        0.0000
     11 H          -1.4422   13.0073    9.5236 H       1  UNL1        0.0000
     12 H          -2.5359   12.6885   10.8518 H       1  UNL1        0.0000
     13 C           1.2360   14.0854   11.0887 C.3     1  UNL1        0.0000
     14 H           0.9004   15.1157   11.0226 H       1  UNL1        0.0000
     15 H           2.0837   14.0647   11.7671 H       1  UNL1        0.0000
     16 H           1.5824   13.7957   10.1006 H       1  UNL1        0.0000
@<TRIPOS>BOND
     1    11     9    1
     2    16    13    1
     3     9    10    1
     4     9    12    1
     5     9     1    1
     6     3     2    1
     7    14    13    1
     8    13     1    1
     9    13    15    1
    10     1     2    1
    11     1     5    1
    12     2     4    1
    13     6     5    1
    14     5     7    1
    15     5     8    1
