@<TRIPOS>MOLECULE
2
 16 15 0 0 0
SMALL
GASTEIGER

@<TRIPOS>ATOM
      1 SI          6.4284    4.7811    5.3136 Si      1  UNL1        0.0000
      2 C           6.2283    3.7982    3.7204 C.3     1  UNL1        0.0000
      3 H           6.4862    2.7507    3.9312 H       1  UNL1        0.0000
      4 H           6.9892    4.1470    3.0092 H       1  UNL1        0.0000
      5 C           6.0359    6.6379    5.0446 C.3     1  UNL1        0.0000
      6 H           6.8355    7.1435    4.5113 H       1  UNL1        0.0000
      7 H           5.1182    6.7594    4.4750 H       1  UNL1        0.0000
      8 H           5.9074    7.1511    5.9930 H       1  UNL1        0.0000
      9 C           8.1885    4.7043    6.0792 C.3     1  UNL1        0.0000
     10 H           8.9389    5.0452    5.3722 H       1  UNL1        0.0000
     11 H           8.2714    5.3232    6.9675 H       1  UNL1        0.0000
     12 H           8.4483    3.6891    6.3629 H       1  UNL1        0.0000
     13 C           5.2191    4.1679    6.6704 C.3     1  UNL1        0.0000
     14 H           5.4447    4.6303    7.6264 H       1  UNL1        0.0000
     15 H           4.1916    4.4205    6.4235 H       1  UNL1        0.0000
     16 H           5.2784    3.0932    6.8118 H       1  UNL1        0.0000
@<TRIPOS>BOND
     1     4     2    1
     2     2     3    1
     3     2     1    1
     4     7     5    1
     5     6     5    1
     6     5     1    1
     7     5     8    1
     8     1     9    1
     9     1    13    1
    10    10     9    1
    11     9    12    1
    12     9    11    1
    13    15    13    1
    14    13    16    1
    15    13    14    1
