@<TRIPOS>MOLECULE
2
 16 15 0 0 0
SMALL
GASTEIGER

@<TRIPOS>ATOM
      1 SI          2.9987    6.6102   20.1869 Si      1  UNL1        0.0000
      2 C           1.8108    7.2038   18.8539 C.3     1  UNL1        0.0000
      3 H           1.0518    6.4317   18.6774 H       1  UNL1        0.0000
      4 H           2.3468    7.3048   17.9015 H       1  UNL1        0.0000
      5 C           3.7457    8.1272   21.1016 C.3     1  UNL1        0.0000
      6 H           4.1528    8.8483   20.3965 H       1  UNL1        0.0000
      7 H           4.5521    7.8373   21.7695 H       1  UNL1        0.0000
      8 H           2.9902    8.6350   21.7006 H       1  UNL1        0.0000
      9 C           4.4781    5.5594   19.5621 C.3     1  UNL1        0.0000
     10 H           4.1333    4.6619   19.0584 H       1  UNL1        0.0000
     11 H           5.1293    5.2501   20.3741 H       1  UNL1        0.0000
     12 H           5.0824    6.1172   18.8526 H       1  UNL1        0.0000
     13 C           2.0746    5.5580   21.4951 C.3     1  UNL1        0.0000
     14 H           1.2873    6.1278   21.9798 H       1  UNL1        0.0000
     15 H           2.7491    5.2115   22.2713 H       1  UNL1        0.0000
     16 H           1.6206    4.6823   21.0424 H       1  UNL1        0.0000
@<TRIPOS>BOND
     1     4     2    1
     2     3     2    1
     3    12     9    1
     4     2     1    1
     5    10     9    1
     6     9     1    1
     7     9    11    1
     8     1     5    1
     9     1    13    1
    10     6     5    1
    11    16    13    1
    12     5     8    1
    13     5     7    1
    14    13    14    1
    15    13    15    1
