@<TRIPOS>MOLECULE
2
 16 15 0 0 0
SMALL
GASTEIGER

@<TRIPOS>ATOM
      1 SI          0.6943   -1.7278    3.9663 Si      1  UNL1        0.0000
      2 C           0.0805   -0.0093    3.5003 C.3     1  UNL1        0.0000
      3 H          -0.8029    0.2040    4.1179 H       1  UNL1        0.0000
      4 H          -0.2935   -0.0660    2.4686 H       1  UNL1        0.0000
      5 C          -0.6681   -3.0817    3.9369 C.3     1  UNL1        0.0000
      6 H          -1.4760   -2.8402    4.6211 H       1  UNL1        0.0000
      7 H          -0.2801   -4.0554    4.2211 H       1  UNL1        0.0000
      8 H          -1.1003   -3.1790    2.9457 H       1  UNL1        0.0000
      9 C           1.4406   -1.7712    5.7323 C.3     1  UNL1        0.0000
     10 H           2.2963   -1.1070    5.8143 H       1  UNL1        0.0000
     11 H           1.7793   -2.7714    5.9849 H       1  UNL1        0.0000
     12 H           0.7118   -1.4814    6.4830 H       1  UNL1        0.0000
     13 C           2.0774   -2.3210    2.7823 C.3     1  UNL1        0.0000
     14 H           1.7599   -2.2704    1.7459 H       1  UNL1        0.0000
     15 H           2.3500   -3.3516    2.9875 H       1  UNL1        0.0000
     16 H           2.9748   -1.7186    2.8888 H       1  UNL1        0.0000
@<TRIPOS>BOND
     1    14    13    1
     2     4     2    1
     3    13    16    1
     4    13    15    1
     5    13     1    1
     6     8     5    1
     7     2     1    1
     8     2     3    1
     9     5     1    1
    10     5     7    1
    11     5     6    1
    12     1     9    1
    13     9    10    1
    14     9    11    1
    15     9    12    1
