@<TRIPOS>MOLECULE
2
 16 15 0 0 0
SMALL
GASTEIGER

@<TRIPOS>ATOM
      1 SI          2.5938    2.3331    0.2479 Si      1  UNL1        0.0000
      2 C           2.7792    3.0086    1.9914 C.3     1  UNL1        0.0000
      3 H           2.5072    4.0711    2.0083 H       1  UNL1        0.0000
      4 H           3.8409    2.9722    2.2690 H       1  UNL1        0.0000
      5 C           0.7537    2.3213   -0.2968 C.3     1  UNL1        0.0000
      6 H           0.6064    1.6868   -1.1654 H       1  UNL1        0.0000
      7 H           0.4093    3.3158   -0.5636 H       1  UNL1        0.0000
      8 H           0.1165    1.9448    0.5002 H       1  UNL1        0.0000
      9 C           3.1891    0.5114    0.2207 C.3     1  UNL1        0.0000
     10 H           2.9886    0.0422   -0.7375 H       1  UNL1        0.0000
     11 H           2.6843   -0.0726    0.9876 H       1  UNL1        0.0000
     12 H           4.2597    0.4445    0.3905 H       1  UNL1        0.0000
     13 C           3.5608    3.2572   -1.1306 C.3     1  UNL1        0.0000
     14 H           4.6284    3.2415   -0.9340 H       1  UNL1        0.0000
     15 H           3.2586    4.2983   -1.1948 H       1  UNL1        0.0000
     16 H           3.4015    2.8097   -2.1071 H       1  UNL1        0.0000
@<TRIPOS>BOND
     1    16    13    1
     2    15    13    1
     3     6     5    1
     4    13    14    1
     5    13     1    1
     6    10     9    1
     7     7     5    1
     8     5     1    1
     9     5     8    1
    10     9     1    1
    11     9    12    1
    12     9    11    1
    13     1     2    1
    14     2     3    1
    15     2     4    1
