@<TRIPOS>MOLECULE
2
 16 15 0 0 0
SMALL
GASTEIGER

@<TRIPOS>ATOM
      1 SI         -0.4130   10.6288   22.4074 Si      1  UNL1        0.0000
      2 C           0.7861   10.9545   20.9969 C.3     1  UNL1        0.0000
      3 H           1.7974   11.0453   21.4128 H       1  UNL1        0.0000
      4 H           0.5627   11.9318   20.5515 H       1  UNL1        0.0000
      5 C          -2.2200   10.6949   21.7672 C.3     1  UNL1        0.0000
      6 H          -2.4046   11.6096   21.2120 H       1  UNL1        0.0000
      7 H          -2.9304   10.6679   22.5875 H       1  UNL1        0.0000
      8 H          -2.4406    9.8541   21.1153 H       1  UNL1        0.0000
      9 C          -0.3181   11.8163   23.9108 C.3     1  UNL1        0.0000
     10 H           0.6797   11.8248   24.3384 H       1  UNL1        0.0000
     11 H          -1.0087   11.5291   24.6982 H       1  UNL1        0.0000
     12 H          -0.5565   12.8351   23.6213 H       1  UNL1        0.0000
     13 C          -0.0954    8.8560   23.0710 C.3     1  UNL1        0.0000
     14 H          -0.9019    8.5158   23.7139 H       1  UNL1        0.0000
     15 H           0.8205    8.8152   23.6528 H       1  UNL1        0.0000
     16 H           0.0016    8.1456   22.2485 H       1  UNL1        0.0000
@<TRIPOS>BOND
     1     4     2    1
     2     2     3    1
     3     2     1    1
     4     8     5    1
     5     6     5    1
     6     5     1    1
     7     5     7    1
     8    16    13    1
     9     1    13    1
    10     1     9    1
    11    13    15    1
    12    13    14    1
    13    12     9    1
    14     9    10    1
    15     9    11    1
