@<TRIPOS>MOLECULE
2
 15 14 0 0 0
SMALL
GASTEIGER

@<TRIPOS>ATOM
      1 SI          2.2645   14.1367   12.8143 Si      1  UNL1        0.0000
      2 C           3.6219   11.5902   11.8096 C.1     1  UNL1        0.0000
      3 C           3.0396   12.5549   12.2731 C.1     1  UNL1        0.0000
      4 C           1.3714   14.9289   11.3184 C.3     1  UNL1        0.0000
      5 H           2.0571   15.0981   10.4929 H       1  UNL1        0.0000
      6 H           0.9296   15.8870   11.5781 H       1  UNL1        0.0000
      7 H           0.5728   14.2886   10.9544 H       1  UNL1        0.0000
      8 C           0.9952   13.9554   14.2276 C.3     1  UNL1        0.0000
      9 H           1.4607   13.5720   15.1311 H       1  UNL1        0.0000
     10 H           0.1920   13.2772   13.9541 H       1  UNL1        0.0000
     11 H           0.5444   14.9137   14.4739 H       1  UNL1        0.0000
     12 C           3.6372   15.3342   13.4008 C.3     1  UNL1        0.0000
     13 H           4.1842   14.9212   14.2437 H       1  UNL1        0.0000
     14 H           3.2263   16.2899   13.7142 H       1  UNL1        0.0000
     15 H           4.3550   15.5303   12.6093 H       1  UNL1        0.0000
@<TRIPOS>BOND
     1     5     4    1
     2     7     4    1
     3     4     6    1
     4     4     1    1
     5     2     3    3
     6     3     1    1
     7    15    12    1
     8     1    12    1
     9     1     8    1
    10    12    14    1
    11    12    13    1
    12    10     8    1
    13     8    11    1
    14     8     9    1
