@<TRIPOS>MOLECULE
2
 15 14 0 0 0
SMALL
GASTEIGER

@<TRIPOS>ATOM
      1 SI          1.5466    6.9273    2.1183 Si      1  UNL1        0.0000
      2 C           3.3412    5.2269    3.9204 C.1     1  UNL1        0.0000
      3 C           2.6251    5.8715    3.1761 C.1     1  UNL1        0.0000
      4 C          -0.2969    6.5212    2.4056 C.3     1  UNL1        0.0000
      5 H          -0.5159    5.4841    2.1705 H       1  UNL1        0.0000
      6 H          -0.9434    7.1424    1.7912 H       1  UNL1        0.0000
      7 H          -0.5746    6.6849    3.4434 H       1  UNL1        0.0000
      8 C           1.9737    6.7187    0.2673 C.3     1  UNL1        0.0000
      9 H           1.8430    5.6918   -0.0608 H       1  UNL1        0.0000
     10 H           3.0060    6.9952    0.0699 H       1  UNL1        0.0000
     11 H           1.3418    7.3440   -0.3579 H       1  UNL1        0.0000
     12 C           1.8349    8.7602    2.5888 C.3     1  UNL1        0.0000
     13 H           2.8708    9.0487    2.4356 H       1  UNL1        0.0000
     14 H           1.5967    8.9400    3.6336 H       1  UNL1        0.0000
     15 H           1.2171    9.4267    1.9934 H       1  UNL1        0.0000
@<TRIPOS>BOND
     1    11     8    1
     2     9     8    1
     3    10     8    1
     4     8     1    1
     5     6     4    1
     6    15    12    1
     7     1     4    1
     8     1    12    1
     9     1     3    1
    10     5     4    1
    11     4     7    1
    12    13    12    1
    13    12    14    1
    14     3     2    3
