@<TRIPOS>MOLECULE
4
 45 46 0 0 0
SMALL
GASTEIGER

@<TRIPOS>ATOM
      1 SI         -0.1229   -2.1912   -5.8664 Si      1  UNL1        0.0000
      2 O          -0.1579   -2.2773   -4.2376 O.3     1  UNL1        0.0000
      3 N           1.3864   -2.8494   -6.4973 N.pl3   1  UNL1        0.0000
      4 C          -1.8052    1.0220   -1.9752 C.3     1  UNL1        0.0000
      5 C          -0.9475    0.2405   -2.9527 C.3     1  UNL1        0.0000
      6 C          -0.1665   -0.8878   -2.2712 C.3     1  UNL1        0.0000
      7 C           0.6723   -1.6655   -3.2824 C.3     1  UNL1        0.0000
      8 C          -0.2325   -0.4000   -6.4901 C.3     1  UNL1        0.0000
      9 C          -1.6067   -3.2559   -6.3798 C.3     1  UNL1        0.0000
     10 C           2.1317   -2.0650   -7.4124 C.ar    1  UNL1        0.0000
     11 C           1.6533   -1.8299   -8.6948 C.ar    1  UNL1        0.0000
     12 C           2.3731   -1.0383   -9.5717 C.ar    1  UNL1        0.0000
     13 C           3.5772   -0.4794   -9.1783 C.ar    1  UNL1        0.0000
     14 C           4.0608   -0.7163   -7.9019 C.ar    1  UNL1        0.0000
     15 C           3.3426   -1.5036   -7.0215 C.ar    1  UNL1        0.0000
     16 C           1.9073   -4.1001   -6.1809 C.ar    1  UNL1        0.0000
     17 C           2.9705   -4.6426   -6.9090 C.ar    1  UNL1        0.0000
     18 C           3.4819   -5.8873   -6.5975 C.ar    1  UNL1        0.0000
     19 C           2.9471   -6.6321   -5.5612 C.ar    1  UNL1        0.0000
     20 C           1.8841   -6.1104   -4.8431 C.ar    1  UNL1        0.0000
     21 C           1.3688   -4.8653   -5.1443 C.ar    1  UNL1        0.0000
     22 H          -1.1475    1.4947   -1.2382 H       1  UNL1        0.0000
     23 H          -2.4550    0.3154   -1.4482 H       1  UNL1        0.0000
     24 H          -1.5745   -0.2119   -3.7203 H       1  UNL1        0.0000
     25 H          -0.2388    0.9086   -3.4452 H       1  UNL1        0.0000
     26 H           0.4965   -0.4816   -1.5048 H       1  UNL1        0.0000
     27 H          -0.8673   -1.5752   -1.7948 H       1  UNL1        0.0000
     28 H           1.2377   -2.4587   -2.7770 H       1  UNL1        0.0000
     29 H           1.3852   -0.9924   -3.7692 H       1  UNL1        0.0000
     30 H           0.6320    0.1837   -6.1863 H       1  UNL1        0.0000
     31 H          -0.2970   -0.3401   -7.5701 H       1  UNL1        0.0000
     32 H          -1.1134    0.0860   -6.0824 H       1  UNL1        0.0000
     33 H          -2.4665   -3.0523   -5.7518 H       1  UNL1        0.0000
     34 H          -1.8911   -3.0512   -7.4063 H       1  UNL1        0.0000
     35 H          -1.3834   -4.3150   -6.3063 H       1  UNL1        0.0000
     36 H           0.7180   -2.2793   -8.9932 H       1  UNL1        0.0000
     37 H           1.9949   -0.8603  -10.5679 H       1  UNL1        0.0000
     38 H           4.1385    0.1376   -9.8640 H       1  UNL1        0.0000
     39 H           4.9996   -0.2819   -7.5900 H       1  UNL1        0.0000
     40 H           3.7122   -1.6959   -6.0244 H       1  UNL1        0.0000
     41 H           3.3957   -4.0886   -7.7326 H       1  UNL1        0.0000
     42 H           4.3049   -6.2798   -7.1779 H       1  UNL1        0.0000
     43 H           3.3483   -7.6050   -5.3201 H       1  UNL1        0.0000
     44 H           1.4489   -6.6800   -4.0340 H       1  UNL1        0.0000
     45 H           0.5432   -4.4804   -4.5713 H       1  UNL1        0.0000
@<TRIPOS>BOND
     1    37    12    1
     2    38    13    1
     3    12    13   ar
     4    12    11   ar
     5    13    14   ar
     6    36    11    1
     7    11    10   ar
     8    14    39    1
     9    14    15   ar
    10    41    17    1
    11    31     8    1
    12    10    15   ar
    13    10     3    1
    14    34     9    1
    15    42    18    1
    16    15    40    1
    17    17    18   ar
    18    17    16   ar
    19    18    19   ar
    20     3    16    1
    21     3     1    1
    22     8    30    1
    23     8    32    1
    24     8     1    1
    25     9    35    1
    26     9     1    1
    27     9    33    1
    28    16    21   ar
    29     1     2    1
    30    19    43    1
    31    19    20   ar
    32    21    20   ar
    33    21    45    1
    34    20    44    1
    35     2     7    1
    36    29     7    1
    37    24     5    1
    38    25     5    1
    39     7    28    1
    40     7     6    1
    41     5     6    1
    42     5     4    1
    43     6    27    1
    44     6    26    1
    45     4    23    1
    46     4    22    1
