@<TRIPOS>MOLECULE
2
 16 15 0 0 0
SMALL
GASTEIGER

@<TRIPOS>ATOM
      1 SI          8.8838    2.3968    4.7084 Si      1  UNL1        0.0000
      2 C           8.9558    3.7420    3.4024 C.3     1  UNL1        0.0000
      3 H           7.9887    3.7541    2.8815 H       1  UNL1        0.0000
      4 H           9.6824    3.4423    2.6347 H       1  UNL1        0.0000
      5 C           7.8044    2.9888    6.1787 C.3     1  UNL1        0.0000
      6 H           8.0655    2.4833    7.1028 H       1  UNL1        0.0000
      7 H           6.7522    2.7947    5.9910 H       1  UNL1        0.0000
      8 H           7.9264    4.0576    6.3406 H       1  UNL1        0.0000
      9 C          10.6339    1.9358    5.3400 C.3     1  UNL1        0.0000
     10 H          10.5844    1.3628    6.2608 H       1  UNL1        0.0000
     11 H          11.2325    2.8197    5.5332 H       1  UNL1        0.0000
     12 H          11.1622    1.3306    4.6089 H       1  UNL1        0.0000
     13 C           8.1016    0.7361    4.1317 C.3     1  UNL1        0.0000
     14 H           8.0601    0.0061    4.9348 H       1  UNL1        0.0000
     15 H           8.6697    0.2950    3.3182 H       1  UNL1        0.0000
     16 H           7.0869    0.8849    3.7739 H       1  UNL1        0.0000
@<TRIPOS>BOND
     1     4     2    1
     2     3     2    1
     3    15    13    1
     4     2     1    1
     5    16    13    1
     6    13     1    1
     7    13    14    1
     8    12     9    1
     9     1     9    1
    10     1     5    1
    11     9    11    1
    12     9    10    1
    13     7     5    1
    14     5     8    1
    15     5     6    1
