@<TRIPOS>MOLECULE
2
 16 15 0 0 0
SMALL
GASTEIGER

@<TRIPOS>ATOM
      1 SI          9.7164    6.6959    7.7632 Si      1  UNL1        0.0000
      2 C           9.8195    7.4275    6.0386 C.3     1  UNL1        0.0000
      3 H          10.8267    7.8529    5.9209 H       1  UNL1        0.0000
      4 H           9.1436    8.2912    5.9831 H       1  UNL1        0.0000
      5 C          10.4838    7.7814    9.1539 C.3     1  UNL1        0.0000
      6 H          10.4344    7.2944   10.1234 H       1  UNL1        0.0000
      7 H           9.9690    8.7337    9.2401 H       1  UNL1        0.0000
      8 H          11.5288    7.9963    8.9497 H       1  UNL1        0.0000
      9 C           7.9017    6.4075    8.3149 C.3     1  UNL1        0.0000
     10 H           7.8617    5.8680    9.2563 H       1  UNL1        0.0000
     11 H           7.3460    5.8294    7.5841 H       1  UNL1        0.0000
     12 H           7.3817    7.3502    8.4603 H       1  UNL1        0.0000
     13 C          10.6504    5.0221    7.8272 C.3     1  UNL1        0.0000
     14 H          10.1944    4.3331    8.5311 H       1  UNL1        0.0000
     15 H          11.6835    5.1584    8.1346 H       1  UNL1        0.0000
     16 H          10.6508    4.5431    6.8501 H       1  UNL1        0.0000
@<TRIPOS>BOND
     1     3     2    1
     2     4     2    1
     3     2     1    1
     4    16    13    1
     5    11     9    1
     6     1    13    1
     7     1     9    1
     8     1     5    1
     9    13    15    1
    10    13    14    1
    11     9    12    1
    12     9    10    1
    13     8     5    1
    14     5     7    1
    15     5     6    1
