@<TRIPOS>MOLECULE
1
 4 3 0 0 0
SMALL
GASTEIGER

@<TRIPOS>ATOM
      1 C          -2.3178    5.4524    1.4704 C.3     1  UNL1       -0.0681
      2 H          -1.7391    5.3444    0.5497 H       1  UNL1        0.0227
      3 H          -2.4500    6.5197    1.6354 H       1  UNL1        0.0227
      4 H          -3.3060    5.0330    1.2771 H       1  UNL1        0.0227
@<TRIPOS>BOND
     1     2     1    1
     2     4     1    1
     3     1     3    1
