@<TRIPOS>MOLECULE
2
 16 15 0 0 0
SMALL
GASTEIGER

@<TRIPOS>ATOM
      1 SI         18.5887    6.4489    1.6284 Si      1  UNL1        0.0000
      2 C          17.3538    5.7041    2.8342 C.3     1  UNL1        0.0000
      3 H          17.3033    6.3408    3.7230 H       1  UNL1        0.0000
      4 H          17.7523    4.7393    3.1514 H       1  UNL1        0.0000
      5 C          18.9645    5.2797    0.1636 C.3     1  UNL1        0.0000
      6 H          19.3305    4.3165    0.5045 H       1  UNL1        0.0000
      7 H          19.7236    5.7031   -0.4878 H       1  UNL1        0.0000
      8 H          18.0786    5.1029   -0.4368 H       1  UNL1        0.0000
      9 C          20.2412    6.7347    2.5638 C.3     1  UNL1        0.0000
     10 H          20.1267    7.4770    3.3479 H       1  UNL1        0.0000
     11 H          21.0221    7.0847    1.8955 H       1  UNL1        0.0000
     12 H          20.5957    5.8216    3.0314 H       1  UNL1        0.0000
     13 C          18.0885    8.1440    0.8991 C.3     1  UNL1        0.0000
     14 H          17.2968    8.0397    0.1655 H       1  UNL1        0.0000
     15 H          18.9344    8.6139    0.4050 H       1  UNL1        0.0000
     16 H          17.7422    8.8271    1.6674 H       1  UNL1        0.0000
@<TRIPOS>BOND
     1     7     5    1
     2     8     5    1
     3     5     6    1
     4     5     1    1
     5    14    13    1
     6    15    13    1
     7    13     1    1
     8    13    16    1
     9     1     9    1
    10     1     2    1
    11    11     9    1
    12     9    12    1
    13     9    10    1
    14     2     4    1
    15     2     3    1
