@<TRIPOS>MOLECULE
2
 16 15 0 0 0
SMALL
GASTEIGER

@<TRIPOS>ATOM
      1 SI         14.8446    4.3059    5.9642 Si      1  UNL1        0.0000
      2 C          14.1070    4.5990    4.2534 C.3     1  UNL1        0.0000
      3 H          13.3170    5.3289    4.3693 H       1  UNL1        0.0000
      4 H          13.6564    3.6795    3.9086 H       1  UNL1        0.0000
      5 C          14.4200    5.7562    7.1398 C.3     1  UNL1        0.0000
      6 H          14.7610    6.7062    6.7459 H       1  UNL1        0.0000
      7 H          14.8701    5.6214    8.1187 H       1  UNL1        0.0000
      8 H          13.3472    5.8386    7.2826 H       1  UNL1        0.0000
      9 C          14.0903    2.7361    6.7709 C.3     1  UNL1        0.0000
     10 H          13.0084    2.7999    6.8430 H       1  UNL1        0.0000
     11 H          14.4731    2.5885    7.7764 H       1  UNL1        0.0000
     12 H          14.3344    1.8489    6.1949 H       1  UNL1        0.0000
     13 C          16.7336    4.0260    6.0143 C.3     1  UNL1        0.0000
     14 H          16.9820    3.1018    5.5044 H       1  UNL1        0.0000
     15 H          17.0923    3.9440    7.0362 H       1  UNL1        0.0000
     16 H          17.2782    4.8350    5.5385 H       1  UNL1        0.0000
@<TRIPOS>BOND
     1     4     2    1
     2     2     3    1
     3     2     1    1
     4    14    13    1
     5    16    13    1
     6     1    13    1
     7     1     9    1
     8     1     5    1
     9    13    15    1
    10    12     9    1
    11     6     5    1
    12     9    10    1
    13     9    11    1
    14     5     8    1
    15     5     7    1
