@<TRIPOS>MOLECULE
14
 14 13 0 0 0
SMALL
GASTEIGER

@<TRIPOS>ATOM
      1 SI          3.6942   -0.8476    3.2553 Si      1  UNL1        0.0000
      2 C           2.2067   -1.8454    2.5497 C.3     1  UNL1        0.0000
      3 H           1.2909   -1.6226    3.0887 H       1  UNL1        0.0000
      4 H           2.3730   -2.9170    2.6173 H       1  UNL1        0.0000
      5 H           2.0354   -1.6029    1.5062 H       1  UNL1        0.0000
      6 C           3.9247   -1.4931    5.0542 C.3     1  UNL1        0.0000
      7 H           4.7977   -1.0498    5.5234 H       1  UNL1        0.0000
      8 H           4.0516   -2.5719    5.0812 H       1  UNL1        0.0000
      9 H           3.0659   -1.2460    5.6695 H       1  UNL1        0.0000
     10 C           5.2318   -1.4896    2.2909 C.3     1  UNL1        0.0000
     11 H           5.1602   -1.2557    1.2331 H       1  UNL1        0.0000
     12 H           5.3415   -2.5668    2.3806 H       1  UNL1        0.0000
     13 H           6.1429   -1.0326    2.6627 H       1  UNL1        0.0000
     14 C           3.4707    0.9762    3.1525 C.3     1  UNL1        0.0000
@<TRIPOS>BOND
     1    11    10    1
     2     5     2    1
     3    10    12    1
     4    10    13    1
     5    10     1    1
     6     2     4    1
     7     2     3    1
     8     2     1    1
     9    14     1    1
    10     1     6    1
    11     6     8    1
    12     6     7    1
    13     6     9    1
