@<TRIPOS>MOLECULE
1
 12 12 0 0 0
SMALL
GASTEIGER

@<TRIPOS>ATOM
      1 C           3.1250    9.0338   13.4044 C.3     1  UNL1        0.0297
      2 C           4.0117    8.6779   14.4066 C.ar    1  UNL1       -0.0385
      3 C           3.9785    9.3418   15.6549 C.ar    1  UNL1       -0.0580
      4 H           3.2463   10.1250   15.7990 H       1  UNL1        0.0620
      5 C           4.8317    8.9776   16.6706 C.ar    1  UNL1       -0.0615
      6 H           4.7804    9.4925   17.6200 H       1  UNL1        0.0618
      7 C           5.7533    7.9548   16.4885 C.ar    1  UNL1       -0.0617
      8 H           6.4209    7.6743   17.2894 H       1  UNL1        0.0618
      9 C           5.8056    7.2938   15.2685 C.ar    1  UNL1       -0.0615
     10 H           6.5210    6.4969   15.1196 H       1  UNL1        0.0618
     11 C           4.9552    7.6389   14.2426 C.ar    1  UNL1       -0.0580
     12 H           4.9927    7.1206   13.2954 H       1  UNL1        0.0620
@<TRIPOS>BOND
     1    12    11    1
     2     1     2    1
     3    11     2   ar
     4    11     9   ar
     5     2     3   ar
     6    10     9    1
     7     9     7   ar
     8     3     4    1
     9     3     5   ar
    10     7     5   ar
    11     7     8    1
    12     5     6    1
