@<TRIPOS>MOLECULE
1
 12 12 0 0 0
SMALL
GASTEIGER

@<TRIPOS>ATOM
      1 C           5.1602   10.5736    5.3237 C.3     1  UNL1        0.0297
      2 C           6.0602   10.9605    6.3038 C.ar    1  UNL1       -0.0385
      3 C           6.0365   10.3416    7.5751 C.ar    1  UNL1       -0.0580
      4 H           5.3005    9.5692    7.7549 H       1  UNL1        0.0620
      5 C           6.9053   10.7333    8.5671 C.ar    1  UNL1       -0.0615
      6 H           6.8621   10.2517    9.5344 H       1  UNL1        0.0618
      7 C           7.8313   11.7428    8.3389 C.ar    1  UNL1       -0.0617
      8 H           8.5102   12.0463    9.1219 H       1  UNL1        0.0618
      9 C           7.8732   12.3610    7.0963 C.ar    1  UNL1       -0.0615
     10 H           8.5917   13.1479    6.9120 H       1  UNL1        0.0618
     11 C           7.0092   11.9854    6.0926 C.ar    1  UNL1       -0.0580
     12 H           7.0389   12.4700    5.1273 H       1  UNL1        0.0620
@<TRIPOS>BOND
     1    12    11    1
     2     1     2    1
     3    11     2   ar
     4    11     9   ar
     5     2     3   ar
     6    10     9    1
     7     9     7   ar
     8     3     4    1
     9     3     5   ar
    10     7     5   ar
    11     7     8    1
    12     5     6    1
