@<TRIPOS>MOLECULE
1
 12 12 0 0 0
SMALL
GASTEIGER

@<TRIPOS>ATOM
      1 C           3.7765    3.2400   10.5352 C.3     1  UNL1        0.0297
      2 C           4.5069    2.1905   11.0623 C.ar    1  UNL1       -0.0385
      3 C           5.1727    1.2981   10.1887 C.ar    1  UNL1       -0.0580
      4 H           5.0906    1.4710    9.1241 H       1  UNL1        0.0620
      5 C           5.8721    0.2214   10.6806 C.ar    1  UNL1       -0.0615
      6 H           6.3624   -0.4538    9.9932 H       1  UNL1        0.0618
      7 C           5.9533   -0.0061   12.0485 C.ar    1  UNL1       -0.0617
      8 H           6.5062   -0.8521   12.4277 H       1  UNL1        0.0618
      9 C           5.3154    0.8629   12.9229 C.ar    1  UNL1       -0.0615
     10 H           5.3768    0.6935   13.9889 H       1  UNL1        0.0618
     11 C           4.6014    1.9407   12.4500 C.ar    1  UNL1       -0.0580
     12 H           4.1052    2.6145   13.1343 H       1  UNL1        0.0620
@<TRIPOS>BOND
     1     4     3    1
     2     6     5    1
     3     3     5   ar
     4     3     2   ar
     5     1     2    1
     6     5     7   ar
     7     2    11   ar
     8     7     8    1
     9     7     9   ar
    10    11     9   ar
    11    11    12    1
    12     9    10    1
