@<TRIPOS>MOLECULE
2
 19 19 0 0 0
SMALL
GASTEIGER

@<TRIPOS>ATOM
      1 N           6.1951   -0.1495   14.4209 N.pl3   1  UNL1       -0.2365
      2 C           5.4069    0.2311   15.2086 C.3     1  UNL1        0.1354
      3 C           7.1850   -0.3593   13.5261 C.ar    1  UNL1        0.0544
      4 C           6.8701   -0.5001   12.1660 C.ar    1  UNL1       -0.0276
      5 C           7.9092   -0.7000   11.2735 C.ar    1  UNL1       -0.0570
      6 H           7.6859   -0.8083   10.2231 H       1  UNL1        0.0621
      7 C           9.2222   -0.7643   11.7101 C.ar    1  UNL1       -0.0611
      8 H          10.0184   -0.9214   11.0000 H       1  UNL1        0.0618
      9 C           9.5156   -0.6295   13.0572 C.ar    1  UNL1       -0.0570
     10 H          10.5400   -0.6832   13.3929 H       1  UNL1        0.0621
     11 C           8.5102   -0.4268   13.9865 C.ar    1  UNL1       -0.0276
     12 C           8.8005   -0.2987   15.4504 C.3     1  UNL1       -0.0379
     13 H           8.2085    0.5008   15.8978 H       1  UNL1        0.0278
     14 H           9.8552   -0.0992   15.6163 H       1  UNL1        0.0278
     15 H           8.5435   -1.2250   15.9651 H       1  UNL1        0.0278
     16 C           5.4433   -0.4478   11.7173 C.3     1  UNL1       -0.0379
     17 H           5.3863   -0.2768   10.6460 H       1  UNL1        0.0278
     18 H           4.9043    0.3462   12.2341 H       1  UNL1        0.0278
     19 H           4.9471   -1.3930   11.9393 H       1  UNL1        0.0278
@<TRIPOS>BOND
     1     6     5    1
     2    17    16    1
     3     8     7    1
     4     5     7   ar
     5     5     4   ar
     6     7     9   ar
     7    16    19    1
     8    16     4    1
     9    16    18    1
    10     4     3   ar
    11     9    10    1
    12     9    11   ar
    13     3    11   ar
    14     3     1    1
    15    11    12    1
    16     1     2    1
    17    12    14    1
    18    12    13    1
    19    12    15    1
