@<TRIPOS>MOLECULE
4
 59 58 0 0 0
SMALL
GASTEIGER

@<TRIPOS>ATOM
      1 SI          2.1227    8.1275    2.3284 Si      1  UNL1        0.0000
      2 SI         -0.0347    7.0327    0.1652 Si      1  UNL1        0.0000
      3 N          -0.4746    5.8175    3.0367 N.3     1  UNL1        0.0000
      4 C          -0.4746    4.6470    3.0364 C.3     1  UNL1        0.0000
      5 C           0.2587    7.9280    1.8480 C.3     1  UNL1        0.0000
      6 C           2.9349    6.4791    2.8366 C.3     1  UNL1        0.0000
      7 C           2.2184    9.3707    3.7802 C.3     1  UNL1        0.0000
      8 C           3.1112    8.8933    0.8850 C.3     1  UNL1        0.0000
      9 C          -1.7876    6.2770    0.0559 C.3     1  UNL1        0.0000
     10 C           0.1082    8.3325   -1.2279 C.3     1  UNL1        0.0000
     11 C           1.1816    5.5951   -0.1324 C.3     1  UNL1        0.0000
     12 B          -0.4745    7.2343    3.0367 B       1  UNL1        0.0000
     13 H          -0.0958    8.9557    1.7444 H       1  UNL1        0.0000
     14 H           3.7816    6.6471    3.4953 H       1  UNL1        0.0000
     15 H           3.3020    5.9326    1.9750 H       1  UNL1        0.0000
     16 H           2.2377    5.8317    3.3578 H       1  UNL1        0.0000
     17 H           3.2466    9.5299    4.0911 H       1  UNL1        0.0000
     18 H           1.6628    9.0260    4.6459 H       1  UNL1        0.0000
     19 H           1.8144   10.3380    3.4970 H       1  UNL1        0.0000
     20 H           4.1309    9.1011    1.1939 H       1  UNL1        0.0000
     21 H           2.6764    9.8302    0.5523 H       1  UNL1        0.0000
     22 H           3.1597    8.2288    0.0294 H       1  UNL1        0.0000
     23 H          -2.0203    5.9983   -0.9677 H       1  UNL1        0.0000
     24 H          -2.5603    6.9611    0.3902 H       1  UNL1        0.0000
     25 H          -1.8618    5.3765    0.6594 H       1  UNL1        0.0000
     26 H          -0.0508    7.8746   -2.1989 H       1  UNL1        0.0000
     27 H           1.0832    8.8055   -1.2460 H       1  UNL1        0.0000
     28 H          -0.6336    9.1169   -1.1144 H       1  UNL1        0.0000
     29 H           0.8858    5.0194   -1.0044 H       1  UNL1        0.0000
     30 H           1.1940    4.9154    0.7157 H       1  UNL1        0.0000
     31 H           2.1965    5.9391   -0.2994 H       1  UNL1        0.0000
     32 C          -1.2076    7.9280    4.2254 C.3     1  UNL1        0.0000
     33 SI         -3.0717    8.1276    3.7449 Si      1  UNL1        0.0000
     34 SI         -0.9143    7.0327    5.9081 Si      1  UNL1        0.0000
     35 H          -0.8531    8.9558    4.3289 H       1  UNL1        0.0000
     36 C          -3.8838    6.4791    3.2367 C.3     1  UNL1        0.0000
     37 C          -3.1673    9.3707    2.2932 C.3     1  UNL1        0.0000
     38 C          -4.0601    8.8933    5.1883 C.3     1  UNL1        0.0000
     39 C           0.8387    6.2771    6.0174 C.3     1  UNL1        0.0000
     40 C          -1.0572    8.3325    7.3012 C.3     1  UNL1        0.0000
     41 C          -2.1305    5.5951    6.2057 C.3     1  UNL1        0.0000
     42 H          -4.7305    6.6471    2.5781 H       1  UNL1        0.0000
     43 H          -4.2509    5.9327    4.0982 H       1  UNL1        0.0000
     44 H          -3.1867    5.8318    2.7155 H       1  UNL1        0.0000
     45 H          -4.1955    9.5300    1.9822 H       1  UNL1        0.0000
     46 H          -2.6117    9.0260    1.4275 H       1  UNL1        0.0000
     47 H          -2.7632   10.3381    2.5763 H       1  UNL1        0.0000
     48 H          -5.0798    9.1012    4.8795 H       1  UNL1        0.0000
     49 H          -3.6253    9.8302    5.5211 H       1  UNL1        0.0000
     50 H          -4.1087    8.2289    6.0439 H       1  UNL1        0.0000
     51 H           1.0714    5.9984    7.0410 H       1  UNL1        0.0000
     52 H           1.6113    6.9612    5.6830 H       1  UNL1        0.0000
     53 H           0.9129    5.3766    5.4139 H       1  UNL1        0.0000
     54 H          -0.8982    7.8746    8.2722 H       1  UNL1        0.0000
     55 H          -2.0321    8.8055    7.3193 H       1  UNL1        0.0000
     56 H          -0.3153    9.1169    7.1878 H       1  UNL1        0.0000
     57 H          -1.8347    5.0194    7.0777 H       1  UNL1        0.0000
     58 H          -2.1428    4.9153    5.3576 H       1  UNL1        0.0000
     59 H          -3.1454    5.9391    6.3727 H       1  UNL1        0.0000
@<TRIPOS>BOND
     1    26    10    1
     2    27    10    1
     3    10    28    1
     4    10     2    1
     5    29    11    1
     6    23     9    1
     7    31    11    1
     8    11     2    1
     9    11    30    1
    10    22     8    1
    11     9     2    1
    12     9    24    1
    13     9    25    1
    14     2     5    1
    15    21     8    1
    16     8    20    1
    17     8     1    1
    18    46    37    1
    19    13     5    1
    20     5     1    1
    21     5    12    1
    22    15     6    1
    23    45    37    1
    24    37    47    1
    25    37    33    1
    26     1     6    1
    27     1     7    1
    28    42    36    1
    29    44    36    1
    30     6    16    1
    31     6    14    1
    32     4     3    1
    33    12     3    1
    34    12    32    1
    35    36    33    1
    36    36    43    1
    37    19     7    1
    38    33    32    1
    39    33    38    1
    40     7    17    1
    41     7    18    1
    42    32    35    1
    43    32    34    1
    44    48    38    1
    45    38    49    1
    46    38    50    1
    47    58    41    1
    48    53    39    1
    49    52    39    1
    50    34    39    1
    51    34    41    1
    52    34    40    1
    53    39    51    1
    54    41    59    1
    55    41    57    1
    56    56    40    1
    57    40    55    1
    58    40    54    1
