@<TRIPOS>MOLECULE
2
 44 46 0 0 0
SMALL
GASTEIGER

@<TRIPOS>ATOM
      1 SI          7.5868    8.6211   11.2239 Si      1  UNL1        0.0000
      2 C           9.7099    4.1113    9.8897 C.3     1  UNL1        0.0000
      3 C          10.1912    4.0026   11.1757 C.2     1  UNL1        0.0000
      4 H          10.7679    3.1130   11.4109 H       1  UNL1        0.0000
      5 C           9.9688    4.9498   12.1395 C.2     1  UNL1        0.0000
      6 C           9.2188    6.0902   11.8087 C.1     1  UNL1        0.0000
      7 C           8.5769    7.0917   11.5697 C.1     1  UNL1        0.0000
      8 C           8.4129    9.6507    9.8523 C.3     1  UNL1        0.0000
      9 H           8.3328    9.1281    8.9049 H       1  UNL1        0.0000
     10 H           9.4656    9.8237   10.0562 H       1  UNL1        0.0000
     11 H           7.9326   10.6188    9.7387 H       1  UNL1        0.0000
     12 C           5.8110    8.1536   10.7182 C.3     1  UNL1        0.0000
     13 H           5.8200    7.6648    9.7493 H       1  UNL1        0.0000
     14 H           5.1781    9.0333   10.6381 H       1  UNL1        0.0000
     15 H           5.3507    7.4789   11.4346 H       1  UNL1        0.0000
     16 C           7.5642    9.6036   12.8637 C.3     1  UNL1        0.0000
     17 H           6.9975   10.5245   12.7651 H       1  UNL1        0.0000
     18 H           8.5688    9.8695   13.1785 H       1  UNL1        0.0000
     19 H           7.1124    9.0253   13.6640 H       1  UNL1        0.0000
     20 C          10.4596    4.8740   13.5676 C.3     1  UNL1        0.0000
     21 C          11.3190    6.1144   13.8627 C.3     1  UNL1        0.0000
     22 H          10.7379    7.0151   13.6542 H       1  UNL1        0.0000
     23 H          12.1913    6.1179   13.2035 H       1  UNL1        0.0000
     24 C          11.7691    6.1055   15.3220 C.3     1  UNL1        0.0000
     25 H          12.3798    6.9948   15.5154 H       1  UNL1        0.0000
     26 C          12.5952    4.8498   15.5944 C.3     1  UNL1        0.0000
     27 H          12.9316    4.8419   16.6336 H       1  UNL1        0.0000
     28 H          13.4819    4.8416   14.9559 H       1  UNL1        0.0000
     29 C          11.7397    3.6156   15.3154 C.3     1  UNL1        0.0000
     30 H          12.3307    2.7115   15.5040 H       1  UNL1        0.0000
     31 C          11.2875    3.6195   13.8543 C.3     1  UNL1        0.0000
     32 H          12.1654    3.5948   13.2036 H       1  UNL1        0.0000
     33 H          10.6907    2.7247   13.6594 H       1  UNL1        0.0000
     34 C           9.2385    4.8872   14.5023 C.3     1  UNL1        0.0000
     35 H           8.6181    4.0096   14.3011 H       1  UNL1        0.0000
     36 H           8.6376    5.7763   14.2995 H       1  UNL1        0.0000
     37 C           9.6942    4.8812   15.9598 C.3     1  UNL1        0.0000
     38 H           8.8131    4.8901   16.6116 H       1  UNL1        0.0000
     39 C          10.5437    6.1209   16.2339 C.3     1  UNL1        0.0000
     40 H           9.9551    7.0220   16.0482 H       1  UNL1        0.0000
     41 H          10.8580    6.1333   17.2802 H       1  UNL1        0.0000
     42 C          10.5183    3.6244   16.2326 C.3     1  UNL1        0.0000
     43 H           9.9106    2.7343   16.0531 H       1  UNL1        0.0000
     44 H          10.8377    3.6067   17.2771 H       1  UNL1        0.0000
@<TRIPOS>BOND
     1     9     8    1
     2    11     8    1
     3    13    12    1
     4     8    10    1
     5     8     1    1
     6     2     3    1
     7    14    12    1
     8    12     1    1
     9    12    15    1
    10     3     4    1
    11     3     5    2
    12     1     7    1
    13     1    16    1
    14     7     6    3
    15     6     5    1
    16     5    20    1
    17    17    16    1
    18    16    18    1
    19    16    19    1
    20    23    21    1
    21    32    31    1
    22    20    31    1
    23    20    21    1
    24    20    34    1
    25    22    21    1
    26    33    31    1
    27    31    29    1
    28    21    24    1
    29    36    34    1
    30    35    34    1
    31    34    37    1
    32    28    26    1
    33    29    30    1
    34    29    26    1
    35    29    42    1
    36    24    25    1
    37    24    26    1
    38    24    39    1
    39    26    27    1
    40    37    42    1
    41    37    39    1
    42    37    38    1
    43    40    39    1
    44    43    42    1
    45    42    44    1
    46    39    41    1
