@<TRIPOS>MOLECULE
1
 4 3 0 0 0
SMALL
GASTEIGER

@<TRIPOS>ATOM
      1 C          -0.1729    5.1603    5.7768 C.3     1  UNL1       -0.0681
      2 H           0.2310    6.1692    5.9385 H       1  UNL1        0.0227
      3 H          -1.1018    5.0829    6.3491 H       1  UNL1        0.0227
      4 H          -0.4572    5.0853    4.7232 H       1  UNL1        0.0227
@<TRIPOS>BOND
     1     4     1    1
     2     1     2    1
     3     1     3    1
