@<TRIPOS>MOLECULE
1
 4 3 0 0 0
SMALL
GASTEIGER

@<TRIPOS>ATOM
      1 C          -0.1729    2.3226    5.7768 C.3     1  UNL1       -0.0681
      2 H           0.2309    1.3138    5.9386 H       1  UNL1        0.0227
      3 H          -1.1018    2.4001    6.3492 H       1  UNL1        0.0227
      4 H          -0.4572    2.3977    4.7232 H       1  UNL1        0.0227
@<TRIPOS>BOND
     1     4     1    1
     2     1     2    1
     3     1     3    1
