@<TRIPOS>MOLECULE
2
 16 15 0 0 0
SMALL
GASTEIGER

@<TRIPOS>ATOM
      1 SI         -1.4815    3.8378    6.1886 Si      1  UNL1        0.0000
      2 C          -0.5507    2.9810    4.7813 C.3     1  UNL1        0.0000
      3 C          -1.2222    2.8439    7.8151 C.3     1  UNL1        0.0000
      4 C          -0.8655    5.6106    6.5768 C.3     1  UNL1        0.0000
      5 C          -3.3831    3.8916    5.9297 C.3     1  UNL1        0.0000
      6 H          -0.8328    1.9253    4.8534 H       1  UNL1        0.0000
      7 H           0.5187    3.0234    5.0310 H       1  UNL1        0.0000
      8 H          -1.5835    1.8241    7.7210 H       1  UNL1        0.0000
      9 H          -1.7470    3.2982    8.6496 H       1  UNL1        0.0000
     10 H          -0.1707    2.7932    8.0805 H       1  UNL1        0.0000
     11 H           0.2178    5.6381    6.6227 H       1  UNL1        0.0000
     12 H          -1.2423    5.9419    7.5397 H       1  UNL1        0.0000
     13 H          -1.1830    6.3392    5.8376 H       1  UNL1        0.0000
     14 H          -3.6709    4.5129    5.0877 H       1  UNL1        0.0000
     15 H          -3.8721    4.2945    6.8116 H       1  UNL1        0.0000
     16 H          -3.7866    2.8973    5.7645 H       1  UNL1        0.0000
@<TRIPOS>BOND
     1     2     6    1
     2     2     7    1
     3     2     1    1
     4    14     5    1
     5    16     5    1
     6    13     4    1
     7     5     1    1
     8     5    15    1
     9     1     4    1
    10     1     3    1
    11     4    11    1
    12     4    12    1
    13     8     3    1
    14     3    10    1
    15     3     9    1
