@<TRIPOS>MOLECULE
2
 16 15 0 0 0
SMALL
GASTEIGER

@<TRIPOS>ATOM
      1 SI         -2.2737    6.5819    1.7552 Si      1  UNL1        0.0000
      2 C          -1.8282    5.0854    2.8335 C.3     1  UNL1        0.0000
      3 C          -4.1599    6.9174    1.9094 C.3     1  UNL1        0.0000
      4 C          -1.9405    6.5723   -0.1370 C.3     1  UNL1        0.0000
      5 C          -1.3987    8.1703    2.3869 C.3     1  UNL1        0.0000
      6 H          -2.7751    4.5578    3.0256 H       1  UNL1        0.0000
      7 H          -1.5389    5.5224    3.7995 H       1  UNL1        0.0000
      8 H          -4.4594    7.7923    1.3404 H       1  UNL1        0.0000
      9 H          -4.4456    7.0881    2.9432 H       1  UNL1        0.0000
     10 H          -4.7448    6.0775    1.5455 H       1  UNL1        0.0000
     11 H          -0.9143    6.3257   -0.3889 H       1  UNL1        0.0000
     12 H          -2.1362    7.5644   -0.5349 H       1  UNL1        0.0000
     13 H          -2.5970    5.8887   -0.6665 H       1  UNL1        0.0000
     14 H          -0.3424    8.1903    2.1371 H       1  UNL1        0.0000
     15 H          -1.4836    8.2730    3.4646 H       1  UNL1        0.0000
     16 H          -1.8484    9.0539    1.9442 H       1  UNL1        0.0000
@<TRIPOS>BOND
     1    13     4    1
     2    12     4    1
     3    11     4    1
     4     4     1    1
     5     8     3    1
     6    10     3    1
     7     1     3    1
     8     1     5    1
     9     1     2    1
    10     3     9    1
    11    16     5    1
    12    14     5    1
    13     5    15    1
    14     2     6    1
    15     2     7    1
