@<TRIPOS>MOLECULE
2
 16 15 0 0 0
SMALL
GASTEIGER

@<TRIPOS>ATOM
      1 SI          1.8403   -0.4334    2.0988 Si      1  UNL1        0.0000
      2 C           1.0233    1.2323    2.5224 C.3     1  UNL1        0.0000
      3 H          -0.0577    1.0973    2.3940 H       1  UNL1        0.0000
      4 H           1.3222    1.9643    1.7542 H       1  UNL1        0.0000
      5 C           0.7743   -1.8899    2.7362 C.3     1  UNL1        0.0000
      6 H           1.0794   -2.8206    2.2686 H       1  UNL1        0.0000
      7 H          -0.2786   -1.7426    2.5167 H       1  UNL1        0.0000
      8 H           0.8814   -2.0149    3.8079 H       1  UNL1        0.0000
      9 C           3.5996   -0.5787    2.8465 C.3     1  UNL1        0.0000
     10 H           4.3616   -0.3075    2.1231 H       1  UNL1        0.0000
     11 H           3.8061   -1.5922    3.1757 H       1  UNL1        0.0000
     12 H           3.7074    0.0877    3.7025 H       1  UNL1        0.0000
     13 C           2.0045   -0.6392    0.2006 C.3     1  UNL1        0.0000
     14 H           2.6137    0.1487   -0.2319 H       1  UNL1        0.0000
     15 H           1.0377   -0.6134   -0.2925 H       1  UNL1        0.0000
     16 H           2.4730   -1.5853   -0.0495 H       1  UNL1        0.0000
@<TRIPOS>BOND
     1    15    13    1
     2    14    13    1
     3    16    13    1
     4    13     1    1
     5     4     2    1
     6     1     2    1
     7     1     5    1
     8     1     9    1
     9    10     9    1
    10     6     5    1
    11     3     2    1
    12     7     5    1
    13     5     8    1
    14     9    11    1
    15     9    12    1
