@<TRIPOS>MOLECULE
2
 16 15 0 0 0
SMALL
GASTEIGER

@<TRIPOS>ATOM
      1 SI         -1.5965    3.3573    4.0671 Si      1  UNL1        0.0000
      2 C          -0.1809    3.2189    5.3309 C.3     1  UNL1        0.0000
      3 H          -0.6063    2.8352    6.2618 H       1  UNL1        0.0000
      4 H           0.1842    4.2319    5.5435 H       1  UNL1        0.0000
      5 C          -2.3267    1.6093    3.7442 C.3     1  UNL1        0.0000
      6 H          -3.1982    1.4375    4.3674 H       1  UNL1        0.0000
      7 H          -1.6028    0.8299    3.9768 H       1  UNL1        0.0000
      8 H          -2.6412    1.4856    2.7125 H       1  UNL1        0.0000
      9 C          -1.0724    4.2037    2.4289 C.3     1  UNL1        0.0000
     10 H          -0.7374    5.2200    2.6132 H       1  UNL1        0.0000
     11 H          -1.9091    4.2600    1.7386 H       1  UNL1        0.0000
     12 H          -0.2669    3.6760    1.9249 H       1  UNL1        0.0000
     13 C          -3.0211    4.4255    4.7762 C.3     1  UNL1        0.0000
     14 H          -3.3917    4.0203    5.7127 H       1  UNL1        0.0000
     15 H          -3.8571    4.4652    4.0859 H       1  UNL1        0.0000
     16 H          -2.7050    5.4469    4.9628 H       1  UNL1        0.0000
@<TRIPOS>BOND
     1    11     9    1
     2    12     9    1
     3     9    10    1
     4     9     1    1
     5     8     5    1
     6     5     7    1
     7     5     1    1
     8     5     6    1
     9     1    13    1
    10     1     2    1
    11    15    13    1
    12    13    16    1
    13    13    14    1
    14     2     4    1
    15     2     3    1
