@<TRIPOS>MOLECULE
2
 16 15 0 0 0
SMALL
GASTEIGER

@<TRIPOS>ATOM
      1 SI          3.1394    3.3649    6.9713 Si      1  UNL1        0.0000
      2 C           3.4039    2.2210    5.4714 C.3     1  UNL1        0.0000
      3 H           3.8561    1.2940    5.8484 H       1  UNL1        0.0000
      4 H           4.1611    2.6861    4.8236 H       1  UNL1        0.0000
      5 C           1.7405    2.6145    8.0557 C.3     1  UNL1        0.0000
      6 H           1.3281    1.7289    7.5717 H       1  UNL1        0.0000
      7 H           0.9336    3.3185    8.2321 H       1  UNL1        0.0000
      8 H           2.1225    2.3144    9.0264 H       1  UNL1        0.0000
      9 C           2.7900    5.1836    6.4670 C.3     1  UNL1        0.0000
     10 H           2.1710    5.2613    5.5774 H       1  UNL1        0.0000
     11 H           3.7200    5.7064    6.2623 H       1  UNL1        0.0000
     12 H           2.2879    5.7230    7.2645 H       1  UNL1        0.0000
     13 C           4.7062    3.4288    8.0733 C.3     1  UNL1        0.0000
     14 H           4.9620    2.4460    8.4566 H       1  UNL1        0.0000
     15 H           4.5534    4.0820    8.9261 H       1  UNL1        0.0000
     16 H           5.5685    3.8014    7.5294 H       1  UNL1        0.0000
@<TRIPOS>BOND
     1     4     2    1
     2     2     3    1
     3     2     1    1
     4    10     9    1
     5    11     9    1
     6     9     1    1
     7     9    12    1
     8     1     5    1
     9     1    13    1
    10    16    13    1
    11     6     5    1
    12     5     7    1
    13     5     8    1
    14    13    14    1
    15    13    15    1
