@<TRIPOS>MOLECULE
2
 16 15 0 0 0
SMALL
GASTEIGER

@<TRIPOS>ATOM
      1 SI          2.4945    9.5016    9.7037 Si      1  UNL1        0.0000
      2 C           3.4079    8.1595   10.7030 C.3     1  UNL1        0.0000
      3 C           0.6171    9.4922   10.0688 C.3     1  UNL1        0.0000
      4 C           3.1626   11.2555   10.1422 C.3     1  UNL1        0.0000
      5 C           2.6913    9.2391    7.8205 C.3     1  UNL1        0.0000
      6 H           3.6677    7.3544   10.0060 H       1  UNL1        0.0000
      7 H           2.6796    7.7115   11.3883 H       1  UNL1        0.0000
      8 H           0.1790    8.5313    9.8198 H       1  UNL1        0.0000
      9 H           0.1031   10.2439    9.4785 H       1  UNL1        0.0000
     10 H           0.3930    9.6920   11.1124 H       1  UNL1        0.0000
     11 H           2.3754   11.8841   10.5463 H       1  UNL1        0.0000
     12 H           3.5461   11.7619    9.2623 H       1  UNL1        0.0000
     13 H           3.9686   11.2109   10.8820 H       1  UNL1        0.0000
     14 H           3.7247    9.2949    7.4965 H       1  UNL1        0.0000
     15 H           2.1347    9.9894    7.2676 H       1  UNL1        0.0000
     16 H           2.3070    8.2688    7.5233 H       1  UNL1        0.0000
@<TRIPOS>BOND
     1    15     5    1
     2    14     5    1
     3    16     5    1
     4     5     1    1
     5    12     4    1
     6     9     3    1
     7     1     3    1
     8     1     4    1
     9     1     2    1
    10     8     3    1
    11     6     2    1
    12     3    10    1
    13     4    11    1
    14     4    13    1
    15     2     7    1
