@<TRIPOS>MOLECULE
3
 52 53 0 0 0
SMALL
GASTEIGER

@<TRIPOS>ATOM
      1 SI         -0.7835    0.3673    1.3769 Si      1  UNL1        0.0000
      2 N           0.3784    1.7175    3.6420 N.3     1  UNL1        0.0000
      3 C           0.4146    1.4322    2.3829 C.3     1  UNL1        0.0000
      4 C          -0.5523    1.1910    4.6230 C.3     1  UNL1        0.0000
      5 C           1.3403    2.6397    4.2182 C.3     1  UNL1        0.0000
      6 C          -2.6029    0.2667    1.9348 C.ar    1  UNL1        0.0000
      7 C          -3.4179    1.4026    1.8310 C.ar    1  UNL1        0.0000
      8 C          -4.7574    1.3333    2.1783 C.ar    1  UNL1        0.0000
      9 C          -5.3283    0.1575    2.6431 C.ar    1  UNL1        0.0000
     10 C          -4.5109   -0.9523    2.7767 C.ar    1  UNL1        0.0000
     11 C          -3.1657   -0.9145    2.4365 C.ar    1  UNL1        0.0000
     12 C          -2.8711    2.7165    1.3645 C.3     1  UNL1        0.0000
     13 C          -6.7837    0.1031    2.9898 C.3     1  UNL1        0.0000
     14 C          -2.3577   -2.1629    2.6331 C.3     1  UNL1        0.0000
     15 C          -0.0382   -1.2843    0.8207 C.ar    1  UNL1        0.0000
     16 C           1.0115   -1.9069    1.5012 C.ar    1  UNL1        0.0000
     17 C           1.5666   -3.0725    0.9978 C.ar    1  UNL1        0.0000
     18 C           1.1076   -3.6472   -0.1781 C.ar    1  UNL1        0.0000
     19 C           0.0624   -3.0277   -0.8437 C.ar    1  UNL1        0.0000
     20 C          -0.5120   -1.8610   -0.3617 C.ar    1  UNL1        0.0000
     21 C           1.5679   -1.3377    2.7722 C.3     1  UNL1        0.0000
     22 C           1.7437   -4.8907   -0.7177 C.3     1  UNL1        0.0000
     23 C          -1.6296   -1.2323   -1.1392 C.3     1  UNL1        0.0000
     24 H          -0.6014    1.3060    0.0763 H       1  UNL1        0.0000
     25 H          -1.3118    0.5809    4.1401 H       1  UNL1        0.0000
     26 H          -0.0180    0.5903    5.3632 H       1  UNL1        0.0000
     27 H          -1.0427    2.0158    5.1437 H       1  UNL1        0.0000
     28 H           2.0510    2.9390    3.4480 H       1  UNL1        0.0000
     29 H           0.8296    3.5264    4.5984 H       1  UNL1        0.0000
     30 H           1.8707    2.1607    5.0434 H       1  UNL1        0.0000
     31 H          -3.6135    3.5022    1.4830 H       1  UNL1        0.0000
     32 H          -1.9873    2.9924    1.9381 H       1  UNL1        0.0000
     33 H          -2.5906    2.6748    0.3124 H       1  UNL1        0.0000
     34 H          -7.0274   -0.8200    3.5098 H       1  UNL1        0.0000
     35 H          -7.0595    0.9467    3.6203 H       1  UNL1        0.0000
     36 H          -7.3854    0.1562    2.0825 H       1  UNL1        0.0000
     37 H          -1.4093   -1.9536    3.1220 H       1  UNL1        0.0000
     38 H          -2.9080   -2.8752    3.2440 H       1  UNL1        0.0000
     39 H          -2.1378   -2.6364    1.6776 H       1  UNL1        0.0000
     40 H           2.3439   -1.9860    3.1725 H       1  UNL1        0.0000
     41 H           2.0063   -0.3551    2.5867 H       1  UNL1        0.0000
     42 H           0.7905   -1.2291    3.5278 H       1  UNL1        0.0000
     43 H           1.0921   -5.3829   -1.4357 H       1  UNL1        0.0000
     44 H           2.6773   -4.6384   -1.2213 H       1  UNL1        0.0000
     45 H           1.9757   -5.5867    0.0862 H       1  UNL1        0.0000
     46 H          -2.4592   -0.9509   -0.4924 H       1  UNL1        0.0000
     47 H          -1.2758   -0.3339   -1.6464 H       1  UNL1        0.0000
     48 H          -2.0015   -1.9195   -1.8960 H       1  UNL1        0.0000
     49 H          -5.3738    2.2168    2.0871 H       1  UNL1        0.0000
     50 H          -4.9296   -1.8738    3.1570 H       1  UNL1        0.0000
     51 H           2.3818   -3.5436    1.5292 H       1  UNL1        0.0000
     52 H          -0.3109   -3.4601   -1.7620 H       1  UNL1        0.0000
@<TRIPOS>BOND
     1    48    23    1
     2    52    19    1
     3    47    23    1
     4    43    22    1
     5    44    22    1
     6    23    46    1
     7    23    20    1
     8    19    20   ar
     9    19    18   ar
    10    22    18    1
    11    22    45    1
    12    20    15   ar
    13    18    17   ar
    14    24     1    1
    15    33    12    1
    16    15     1    1
    17    15    16   ar
    18    17    16   ar
    19    17    51    1
    20    12    31    1
    21    12     7    1
    22    12    32    1
    23     1     6    1
    24     1     3    1
    25    16    21    1
    26    39    14    1
    27     7     6   ar
    28     7     8   ar
    29     6    11   ar
    30    36    13    1
    31    49     8    1
    32     8     9   ar
    33     3     2    1
    34    11    14    1
    35    11    10   ar
    36    41    21    1
    37    14    37    1
    38    14    38    1
    39     9    10   ar
    40     9    13    1
    41    21    40    1
    42    21    42    1
    43    10    50    1
    44    13    34    1
    45    13    35    1
    46    28     5    1
    47     2     5    1
    48     2     4    1
    49    25     4    1
    50     5    29    1
    51     5    30    1
    52     4    27    1
    53     4    26    1
