@<TRIPOS>MOLECULE
1
 72 74 0 0 0
SMALL
GASTEIGER

@<TRIPOS>ATOM
      1 C           6.1482   11.8031    5.4505 C.3     1  UNL1        0.0000
      2 N           5.1867   11.9220    4.4855 N.pl3   1  UNL1        0.0000
      3 C           4.6395   10.8550    3.7483 C.ar    1  UNL1        0.0000
      4 C           4.9811   10.7152    2.3971 C.ar    1  UNL1        0.0000
      5 C           4.4465    9.6599    1.6772 C.ar    1  UNL1        0.0000
      6 H           4.7179    9.5430    0.6376 H       1  UNL1        0.0000
      7 C           3.5841    8.7418    2.2611 C.ar    1  UNL1        0.0000
      8 C           3.2622    8.8984    3.5992 C.ar    1  UNL1        0.0000
      9 H           2.5977    8.1901    4.0731 H       1  UNL1        0.0000
     10 C           3.7819    9.9369    4.3598 C.ar    1  UNL1        0.0000
     11 C           5.9468   11.6632    1.7524 C.3     1  UNL1        0.0000
     12 H           5.6640   12.6967    1.9393 H       1  UNL1        0.0000
     13 H           5.9872   11.4928    0.6793 H       1  UNL1        0.0000
     14 H           6.9466   11.5109    2.1589 H       1  UNL1        0.0000
     15 C           3.0440    7.5895    1.4717 C.3     1  UNL1        0.0000
     16 H           3.7179    6.7370    1.5607 H       1  UNL1        0.0000
     17 H           2.9602    7.8443    0.4178 H       1  UNL1        0.0000
     18 H           2.0678    7.2868    1.8435 H       1  UNL1        0.0000
     19 C           3.4025   10.0358    5.8079 C.3     1  UNL1        0.0000
     20 H           3.8386    9.2027    6.3580 H       1  UNL1        0.0000
     21 H           2.3207    9.9751    5.9199 H       1  UNL1        0.0000
     22 H           3.7505   10.9630    6.2560 H       1  UNL1        0.0000
     23 C           6.1879   13.2594    5.7040 C.2     1  UNL1        0.0000
     24 N           6.8791   13.7945    6.6225 N.pl3   1  UNL1        0.0000
     25 C           6.8664   15.1237    6.9775 C.ar    1  UNL1        0.0000
     26 C           5.6825   15.8047    7.3038 C.ar    1  UNL1        0.0000
     27 C           5.7686   17.1118    7.7613 C.ar    1  UNL1        0.0000
     28 H           4.8569   17.6299    8.0265 H       1  UNL1        0.0000
     29 C           6.9815   17.7724    7.8789 C.ar    1  UNL1        0.0000
     30 C           8.1432   17.0785    7.5613 C.ar    1  UNL1        0.0000
     31 H           9.0989   17.5733    7.6624 H       1  UNL1        0.0000
     32 C           8.1087   15.7639    7.1388 C.ar    1  UNL1        0.0000
     33 C           4.3383   15.1422    7.2108 C.3     1  UNL1        0.0000
     34 H           3.9236   15.2546    6.2085 H       1  UNL1        0.0000
     35 H           3.6485   15.5942    7.9210 H       1  UNL1        0.0000
     36 H           4.4143   14.0772    7.4264 H       1  UNL1        0.0000
     37 C           7.0410   19.2022    8.3241 C.3     1  UNL1        0.0000
     38 H           7.9459   19.3912    8.8973 H       1  UNL1        0.0000
     39 H           6.1773   19.4557    8.9343 H       1  UNL1        0.0000
     40 H           7.0485   19.8638    7.4566 H       1  UNL1        0.0000
     41 C           9.3695   15.0152    6.8314 C.3     1  UNL1        0.0000
     42 H           9.3504   14.6084    5.8205 H       1  UNL1        0.0000
     43 H           9.4696   14.1749    7.5166 H       1  UNL1        0.0000
     44 H          10.2376   15.6619    6.9360 H       1  UNL1        0.0000
     45 B           5.1792   13.3869    4.4877 B       1  UNL1        0.0000
     46 N           4.5736   14.3294    3.6436 N.3     1  UNL1        0.0000
     47 SI          2.9013   14.0836    3.0951 Si      1  UNL1        0.0000
     48 C           1.9958   12.9974    4.3712 C.3     1  UNL1        0.0000
     49 H           2.1221   11.9434    4.1517 H       1  UNL1        0.0000
     50 H           0.9302   13.2044    4.3608 H       1  UNL1        0.0000
     51 H           2.3535   13.1722    5.3811 H       1  UNL1        0.0000
     52 C           2.7980   13.2689    1.3749 C.3     1  UNL1        0.0000
     53 H           3.4437   13.7479    0.6468 H       1  UNL1        0.0000
     54 H           1.7812   13.3299    0.9987 H       1  UNL1        0.0000
     55 H           3.0662   12.2176    1.4151 H       1  UNL1        0.0000
     56 C           2.0128   15.7691    3.0767 C.3     1  UNL1        0.0000
     57 H           1.9663   16.2094    4.0677 H       1  UNL1        0.0000
     58 H           0.9910   15.6338    2.7361 H       1  UNL1        0.0000
     59 H           2.4823   16.4879    2.4157 H       1  UNL1        0.0000
     60 SI          5.5427   15.7394    3.1393 Si      1  UNL1        0.0000
     61 C           5.2857   15.9726    1.2639 C.3     1  UNL1        0.0000
     62 H           5.6533   15.1218    0.6981 H       1  UNL1        0.0000
     63 H           5.8371   16.8448    0.9276 H       1  UNL1        0.0000
     64 H           4.2460   16.1230    0.9974 H       1  UNL1        0.0000
     65 C           5.0770   17.3152    4.1004 C.3     1  UNL1        0.0000
     66 H           4.0197   17.5480    4.0458 H       1  UNL1        0.0000
     67 H           5.6192   18.1642    3.6948 H       1  UNL1        0.0000
     68 H           5.3468   17.2319    5.1490 H       1  UNL1        0.0000
     69 C           7.3808   15.3511    3.4275 C.3     1  UNL1        0.0000
     70 H           7.6567   15.5509    4.4568 H       1  UNL1        0.0000
     71 H           8.0108   15.9734    2.7993 H       1  UNL1        0.0000
     72 H           7.6263   14.3150    3.2149 H       1  UNL1        0.0000
@<TRIPOS>BOND
     1    17    15    1
     2     6     5    1
     3    53    52    1
     4    13    11    1
     5    62    61    1
     6    63    61    1
     7    64    61    1
     8    54    52    1
     9    61    60    1
    10    52    55    1
    11    52    47    1
    12    15    16    1
    13    15    18    1
    14    15     7    1
    15     5     7   ar
    16     5     4   ar
    17    11    12    1
    18    11    14    1
    19    11     4    1
    20     7     8   ar
    21     4     3   ar
    22    59    56    1
    23    58    56    1
    24    71    69    1
    25    56    47    1
    26    56    57    1
    27    47    46    1
    28    47    48    1
    29    60    69    1
    30    60    46    1
    31    60    65    1
    32    72    69    1
    33    69    70    1
    34     8     9    1
    35     8    10   ar
    36    46    45    1
    37    67    65    1
    38     3    10   ar
    39     3     2    1
    40    66    65    1
    41    65    68    1
    42    49    48    1
    43    10    19    1
    44    50    48    1
    45    48    51    1
    46     2    45    1
    47     2     1    1
    48    45    23    2
    49     1    23    1
    50    23    24    1
    51    19    21    1
    52    19    22    1
    53    19    20    1
    54    42    41    1
    55    34    33    1
    56    24    25    1
    57    41    44    1
    58    41    32    1
    59    41    43    1
    60    25    32   ar
    61    25    26   ar
    62    32    30   ar
    63    33    26    1
    64    33    36    1
    65    33    35    1
    66    26    27   ar
    67    40    37    1
    68    30    31    1
    69    30    29   ar
    70    27    29   ar
    71    27    28    1
    72    29    37    1
    73    37    38    1
    74    37    39    1
