@<TRIPOS>MOLECULE
3
 90 92 0 0 0
SMALL
GASTEIGER

@<TRIPOS>ATOM
      1 B           4.4829   10.0685   13.8566 B       1  UNL1        0.0000
      2 N           4.4120    8.6344   14.1508 N.pl3   1  UNL1        0.0000
      3 C           5.5212    8.6315   14.9533 C.3     1  UNL1        0.0000
      4 C           5.8785   10.0250   14.6106 C.2     1  UNL1        0.0000
      5 N           3.5718   10.9907   13.3198 N.3     1  UNL1        0.0000
      6 N           6.9902   10.5292   14.9437 N.2     1  UNL1        0.0000
      7 SI          2.8521   10.6662   11.7316 Si      1  UNL1        0.0000
      8 C           1.5057    9.3182   11.7855 C.3     1  UNL1        0.0000
      9 H           1.8545    8.3973   12.2397 H       1  UNL1        0.0000
     10 H           1.1805    9.0846   10.7759 H       1  UNL1        0.0000
     11 H           0.6279    9.6430   12.3361 H       1  UNL1        0.0000
     12 C           4.3054   10.1679   10.6014 C.3     1  UNL1        0.0000
     13 H           4.9422   11.0239   10.3982 H       1  UNL1        0.0000
     14 H           3.9580    9.7887    9.6451 H       1  UNL1        0.0000
     15 H           4.9261    9.4035   11.0563 H       1  UNL1        0.0000
     16 C           2.0940   12.2315   10.9613 C.3     1  UNL1        0.0000
     17 H           1.1002   12.4398   11.3384 H       1  UNL1        0.0000
     18 H           2.0053   12.0886    9.8889 H       1  UNL1        0.0000
     19 H           2.7048   13.1119   11.1234 H       1  UNL1        0.0000
     20 SI          3.4068   12.5236   14.2143 Si      1  UNL1        0.0000
     21 C           3.6438   12.1462   16.0644 C.3     1  UNL1        0.0000
     22 H           2.8498   11.5120   16.4464 H       1  UNL1        0.0000
     23 H           3.6310   13.0599   16.6505 H       1  UNL1        0.0000
     24 H           4.5852   11.6453   16.2613 H       1  UNL1        0.0000
     25 C           1.6308   13.1928   14.0439 C.3     1  UNL1        0.0000
     26 H           1.5425   13.9124   13.2391 H       1  UNL1        0.0000
     27 H           1.3454   13.7014   14.9592 H       1  UNL1        0.0000
     28 H           0.9059   12.4055   13.8688 H       1  UNL1        0.0000
     29 C           4.7071   13.7563   13.5680 C.3     1  UNL1        0.0000
     30 H           5.7158   13.4058   13.7679 H       1  UNL1        0.0000
     31 H           4.5965   14.7265   14.0427 H       1  UNL1        0.0000
     32 H           4.6233   13.9056   12.4956 H       1  UNL1        0.0000
     33 C           3.5043    7.5583   14.0191 C.ar    1  UNL1        0.0000
     34 C           3.7437    6.5451   13.0838 C.ar    1  UNL1        0.0000
     35 C           2.8186    5.5168   12.9632 C.ar    1  UNL1        0.0000
     36 H           2.9905    4.7277   12.2482 H       1  UNL1        0.0000
     37 C           1.6846    5.4842   13.7495 C.ar    1  UNL1        0.0000
     38 H           0.9738    4.6789   13.6415 H       1  UNL1        0.0000
     39 C           1.4711    6.4756   14.6868 C.ar    1  UNL1        0.0000
     40 H           0.5924    6.4325   15.3114 H       1  UNL1        0.0000
     41 C           2.3739    7.5171   14.8468 C.ar    1  UNL1        0.0000
     42 C           4.9833    6.5333   12.2216 C.3     1  UNL1        0.0000
     43 H           5.5718    7.4318   12.4381 H       1  UNL1        0.0000
     44 C           4.6182    6.5313   10.7343 C.3     1  UNL1        0.0000
     45 H           5.5123    6.6696   10.1302 H       1  UNL1        0.0000
     46 H           3.9158    7.3296   10.5083 H       1  UNL1        0.0000
     47 H           4.1628    5.5859   10.4505 H       1  UNL1        0.0000
     48 C           5.8410    5.3109   12.5592 C.3     1  UNL1        0.0000
     49 H           6.7999    5.3705   12.0496 H       1  UNL1        0.0000
     50 H           5.3441    4.3943   12.2508 H       1  UNL1        0.0000
     51 H           6.0200    5.2588   13.6316 H       1  UNL1        0.0000
     52 C           2.1294    8.5593   15.9120 C.3     1  UNL1        0.0000
     53 H           2.9912    9.2305   15.9535 H       1  UNL1        0.0000
     54 C           1.9843    7.9028   17.2876 C.3     1  UNL1        0.0000
     55 H           1.9527    8.6663   18.0617 H       1  UNL1        0.0000
     56 H           2.8311    7.2483   17.4865 H       1  UNL1        0.0000
     57 H           1.0720    7.3152   17.3502 H       1  UNL1        0.0000
     58 C           0.8952    9.3995   15.5753 C.3     1  UNL1        0.0000
     59 H           1.0658    9.9582   14.6586 H       1  UNL1        0.0000
     60 H           0.6909   10.1046   16.3784 H       1  UNL1        0.0000
     61 H           0.0199    8.7675   15.4446 H       1  UNL1        0.0000
     62 C           7.6015   11.6940   14.5401 C.ar    1  UNL1        0.0000
     63 C           7.9238   12.6715   15.4927 C.ar    1  UNL1        0.0000
     64 C           8.6731   13.7702   15.1026 C.ar    1  UNL1        0.0000
     65 H           8.9168   14.5319   15.8273 H       1  UNL1        0.0000
     66 C           9.1229   13.8991   13.8038 C.ar    1  UNL1        0.0000
     67 H           9.7120   14.7563   13.5139 H       1  UNL1        0.0000
     68 C           8.8272   12.9169   12.8745 C.ar    1  UNL1        0.0000
     69 H           9.2028   13.0212   11.8694 H       1  UNL1        0.0000
     70 C           8.0630   11.8138   13.2115 C.ar    1  UNL1        0.0000
     71 C           7.4552   12.5379   16.9225 C.3     1  UNL1        0.0000
     72 H           6.8238   11.6451   16.9936 H       1  UNL1        0.0000
     73 C           6.6324   13.7562   17.3487 C.3     1  UNL1        0.0000
     74 H           6.1580   13.5689   18.3094 H       1  UNL1        0.0000
     75 H           5.8613   13.9731   16.6134 H       1  UNL1        0.0000
     76 H           7.2674   14.6332   17.4493 H       1  UNL1        0.0000
     77 C           8.6495   12.3464   17.8597 C.3     1  UNL1        0.0000
     78 H           8.3039   12.2150   18.8830 H       1  UNL1        0.0000
     79 H           9.3092   13.2105   17.8257 H       1  UNL1        0.0000
     80 H           9.2187   11.4676   17.5702 H       1  UNL1        0.0000
     81 C           7.7840   10.7017   12.2233 C.3     1  UNL1        0.0000
     82 H           6.7502   10.3683   12.3733 H       1  UNL1        0.0000
     83 C           8.7180    9.5235   12.5206 C.3     1  UNL1        0.0000
     84 H           8.5835    9.1811   13.5449 H       1  UNL1        0.0000
     85 H           9.7554    9.8264   12.3946 H       1  UNL1        0.0000
     86 H           8.5136    8.6929   11.8477 H       1  UNL1        0.0000
     87 C           7.9225   11.1249   10.7624 C.3     1  UNL1        0.0000
     88 H           7.3477   12.0269   10.5631 H       1  UNL1        0.0000
     89 H           7.5543   10.3304   10.1163 H       1  UNL1        0.0000
     90 H           8.9633   11.3065   10.5050 H       1  UNL1        0.0000
@<TRIPOS>BOND
     1    14    12    1
     2    18    16    1
     3    89    87    1
     4    45    44    1
     5    13    12    1
     6    47    44    1
     7    90    87    1
     8    46    44    1
     9    88    87    1
    10    12    15    1
    11    12     7    1
    12    44    42    1
    13    87    81    1
    14    10     8    1
    15    16    19    1
    16    16    17    1
    17    16     7    1
    18     7     8    1
    19     7     5    1
    20     8     9    1
    21     8    11    1
    22    86    83    1
    23    69    68    1
    24    49    48    1
    25    42    43    1
    26    42    48    1
    27    42    34    1
    28    81    82    1
    29    81    83    1
    30    81    70    1
    31    36    35    1
    32    50    48    1
    33    85    83    1
    34    32    29    1
    35    83    84    1
    36    48    51    1
    37    68    70   ar
    38    68    66   ar
    39    35    34   ar
    40    35    37   ar
    41    34    33   ar
    42    70    62   ar
    43    26    25    1
    44     5     1    1
    45     5    20    1
    46    67    66    1
    47    29    30    1
    48    29    31    1
    49    29    20    1
    50    38    37    1
    51    37    39   ar
    52    66    64   ar
    53     1     2    1
    54     1     4    1
    55    28    25    1
    56    33     2    1
    57    33    41   ar
    58    25    20    1
    59    25    27    1
    60     2     3    1
    61    20    21    1
    62    62     6    1
    63    62    63   ar
    64     4     6    2
    65     4     3    1
    66    59    58    1
    67    39    41   ar
    68    39    40    1
    69    41    52    1
    70    64    63   ar
    71    64    65    1
    72    61    58    1
    73    63    71    1
    74    58    52    1
    75    58    60    1
    76    52    53    1
    77    52    54    1
    78    21    24    1
    79    21    22    1
    80    21    23    1
    81    75    73    1
    82    71    72    1
    83    71    73    1
    84    71    77    1
    85    54    57    1
    86    54    56    1
    87    54    55    1
    88    73    76    1
    89    73    74    1
    90    80    77    1
    91    79    77    1
    92    77    78    1
