@<TRIPOS>MOLECULE
2
 16 15 0 0 0
SMALL
GASTEIGER

@<TRIPOS>ATOM
      1 SI         -4.7896    5.9680    6.9104 Si      1  UNL1        0.0000
      2 C          -5.1470    7.5036    5.8775 C.3     1  UNL1        0.0000
      3 H          -5.1391    8.3761    6.5426 H       1  UNL1        0.0000
      4 H          -6.1803    7.4312    5.5125 H       1  UNL1        0.0000
      5 C          -2.8963    5.6398    6.9781 C.3     1  UNL1        0.0000
      6 H          -2.4559    5.6701    5.9819 H       1  UNL1        0.0000
      7 H          -2.6805    4.6641    7.4031 H       1  UNL1        0.0000
      8 H          -2.3890    6.3782    7.5929 H       1  UNL1        0.0000
      9 C          -5.3666    6.0900    8.7356 C.3     1  UNL1        0.0000
     10 H          -4.8939    6.9264    9.2416 H       1  UNL1        0.0000
     11 H          -5.1268    5.1916    9.2963 H       1  UNL1        0.0000
     12 H          -6.4402    6.2371    8.7967 H       1  UNL1        0.0000
     13 C          -5.6208    4.4205    6.1533 C.3     1  UNL1        0.0000
     14 H          -6.7019    4.5035    6.1960 H       1  UNL1        0.0000
     15 H          -5.3420    3.5187    6.6896 H       1  UNL1        0.0000
     16 H          -5.3439    4.2862    5.1132 H       1  UNL1        0.0000
@<TRIPOS>BOND
     1    16    13    1
     2     4     2    1
     3     2     3    1
     4     2     1    1
     5     6     5    1
     6    13    14    1
     7    13    15    1
     8    13     1    1
     9     1     5    1
    10     1     9    1
    11     5     7    1
    12     5     8    1
    13     9    12    1
    14     9    10    1
    15     9    11    1
