@<TRIPOS>MOLECULE
2
 16 15 0 0 0
SMALL
GASTEIGER

@<TRIPOS>ATOM
      1 SI         -4.6387    5.4367    1.6999 Si      1  UNL1        0.0000
      2 C          -3.8734    7.1513    1.8086 C.3     1  UNL1        0.0000
      3 H          -4.4857    7.8528    1.2261 H       1  UNL1        0.0000
      4 H          -2.8857    7.1489    1.3333 H       1  UNL1        0.0000
      5 C          -3.5755    4.2231    2.7423 C.3     1  UNL1        0.0000
      6 H          -2.6482    3.9769    2.2332 H       1  UNL1        0.0000
      7 H          -4.0997    3.2892    2.9179 H       1  UNL1        0.0000
      8 H          -3.3230    4.6490    3.7127 H       1  UNL1        0.0000
      9 C          -6.4066    5.5211    2.4312 C.3     1  UNL1        0.0000
     10 H          -6.4097    6.0084    3.4048 H       1  UNL1        0.0000
     11 H          -6.8387    4.5331    2.5538 H       1  UNL1        0.0000
     12 H          -7.0665    6.0837    1.7778 H       1  UNL1        0.0000
     13 C          -4.7758    4.6690   -0.0527 C.3     1  UNL1        0.0000
     14 H          -5.3913    5.2846   -0.7012 H       1  UNL1        0.0000
     15 H          -5.2195    3.6784   -0.0242 H       1  UNL1        0.0000
     16 H          -3.8005    4.5770   -0.5212 H       1  UNL1        0.0000
@<TRIPOS>BOND
     1    14    13    1
     2    16    13    1
     3    13    15    1
     4    13     1    1
     5     3     2    1
     6     4     2    1
     7     1     2    1
     8     1     9    1
     9     1     5    1
    10    12     9    1
    11     6     5    1
    12     9    11    1
    13     9    10    1
    14     5     7    1
    15     5     8    1
