@<TRIPOS>MOLECULE
2
 16 15 0 0 0
SMALL
GASTEIGER

@<TRIPOS>ATOM
      1 SI         -4.4552    5.6712    1.4797 Si      1  UNL1        0.0000
      2 C          -3.4846    7.2626    1.7679 C.3     1  UNL1        0.0000
      3 H          -3.9585    8.0476    1.1506 H       1  UNL1        0.0000
      4 H          -2.4790    7.1292    1.3328 H       1  UNL1        0.0000
      5 C          -3.7655    4.2995    2.6331 C.3     1  UNL1        0.0000
      6 H          -2.7773    3.9741    2.3217 H       1  UNL1        0.0000
      7 H          -4.4063    3.4238    2.6366 H       1  UNL1        0.0000
      8 H          -3.6961    4.6647    3.6572 H       1  UNL1        0.0000
      9 C          -6.2929    5.9503    1.9390 C.3     1  UNL1        0.0000
     10 H          -6.3878    6.2786    2.9714 H       1  UNL1        0.0000
     11 H          -6.8779    5.0432    1.8262 H       1  UNL1        0.0000
     12 H          -6.7450    6.7101    1.3092 H       1  UNL1        0.0000
     13 C          -4.4166    4.9629   -0.3057 C.3     1  UNL1        0.0000
     14 H          -4.8390    5.6672   -1.0161 H       1  UNL1        0.0000
     15 H          -4.9839    4.0402   -0.3851 H       1  UNL1        0.0000
     16 H          -3.4007    4.7488   -0.6249 H       1  UNL1        0.0000
@<TRIPOS>BOND
     1    14    13    1
     2    16    13    1
     3    15    13    1
     4    13     1    1
     5     3     2    1
     6    12     9    1
     7     4     2    1
     8     1     2    1
     9     1     9    1
    10     1     5    1
    11    11     9    1
    12     9    10    1
    13     6     5    1
    14     5     7    1
    15     5     8    1
