@<TRIPOS>MOLECULE
2
 16 15 0 0 0
SMALL
GASTEIGER

@<TRIPOS>ATOM
      1 SI         -4.3096    5.8903    6.8784 Si      1  UNL1        0.0000
      2 C          -4.6491    7.2908    5.6527 C.3     1  UNL1        0.0000
      3 H          -4.8975    8.1798    6.2615 H       1  UNL1        0.0000
      4 H          -5.6061    7.0240    5.1672 H       1  UNL1        0.0000
      5 C          -4.6387    6.3877    8.7038 C.3     1  UNL1        0.0000
      6 H          -3.9412    7.1497    9.0391 H       1  UNL1        0.0000
      7 H          -4.5380    5.5387    9.3734 H       1  UNL1        0.0000
      8 H          -5.6418    6.7839    8.8294 H       1  UNL1        0.0000
      9 C          -2.4821    5.2864    6.8306 C.3     1  UNL1        0.0000
     10 H          -2.3118    4.6161    5.9928 H       1  UNL1        0.0000
     11 H          -2.2243    4.7427    7.7344 H       1  UNL1        0.0000
     12 H          -1.7875    6.1178    6.7410 H       1  UNL1        0.0000
     13 C          -5.3915    4.3532    6.5116 C.3     1  UNL1        0.0000
     14 H          -6.4357    4.5463    6.7367 H       1  UNL1        0.0000
     15 H          -5.0831    3.4941    7.0997 H       1  UNL1        0.0000
     16 H          -5.3320    4.0729    5.4644 H       1  UNL1        0.0000
@<TRIPOS>BOND
     1     4     2    1
     2    16    13    1
     3     2     3    1
     4     2     1    1
     5    10     9    1
     6    13    14    1
     7    13     1    1
     8    13    15    1
     9    12     9    1
    10     9     1    1
    11     9    11    1
    12     1     5    1
    13     5     8    1
    14     5     6    1
    15     5     7    1
