@<TRIPOS>MOLECULE
1
 4 3 0 0 0
SMALL
GASTEIGER

@<TRIPOS>ATOM
      1 C           5.6590    4.2320    3.6617 C.3     1  UNL1       -0.0681
      2 H           5.9940    3.2458    4.0215 H       1  UNL1        0.0227
      3 H           6.0475    4.9797    4.3662 H       1  UNL1        0.0227
      4 H           4.5638    4.2590    3.7572 H       1  UNL1        0.0227
@<TRIPOS>BOND
     1     1     4    1
     2     1     2    1
     3     1     3    1
