@<TRIPOS>MOLECULE
1
 4 3 0 0 0
SMALL
GASTEIGER

@<TRIPOS>ATOM
      1 C           6.2306    3.9451    6.7807 C.3     1  UNL1       -0.0681
      2 H           6.8494    4.6639    7.3421 H       1  UNL1        0.0227
      3 H           5.8918    4.4632    5.8698 H       1  UNL1        0.0227
      4 H           6.9072    3.1409    6.4589 H       1  UNL1        0.0227
@<TRIPOS>BOND
     1     3     1    1
     2     4     1    1
     3     1     2    1
