@<TRIPOS>MOLECULE
1
 4 3 0 0 0
SMALL
GASTEIGER

@<TRIPOS>ATOM
      1 C           6.1165    6.5651    1.6233 C.3     1  UNL1       -0.0681
      2 H           6.7532    7.1032    2.3392 H       1  UNL1        0.0227
      3 H           6.3876    6.9238    0.6177 H       1  UNL1        0.0227
      4 H           5.0868    6.9027    1.8133 H       1  UNL1        0.0227
@<TRIPOS>BOND
     1     3     1    1
     2     1     4    1
     3     1     2    1
