@<TRIPOS>MOLECULE
1
 4 3 0 0 0
SMALL
GASTEIGER

@<TRIPOS>ATOM
      1 C           5.6580    2.5236    9.5174 C.3     1  UNL1       -0.0681
      2 H           6.0648    3.2956   10.1869 H       1  UNL1        0.0227
      3 H           4.9786    1.8974   10.1157 H       1  UNL1        0.0227
      4 H           6.5049    1.8919    9.2182 H       1  UNL1        0.0227
@<TRIPOS>BOND
     1     4     1    1
     2     1     3    1
     3     1     2    1
