@<TRIPOS>MOLECULE
1
 14 14 0 0 0
SMALL
GASTEIGER

@<TRIPOS>ATOM
      1 C           1.5387   12.1677   11.3047 C.3     1  UNL1       -0.0237
      2 H           1.3867   11.3084   11.9784 H       1  UNL1        0.0316
      3 H           0.6629   12.8308   11.3810 H       1  UNL1        0.0316
      4 C           1.6866   11.7036    9.9244 C.ar    1  UNL1       -0.0470
      5 C           1.3649   12.5343    8.8376 C.ar    1  UNL1       -0.0586
      6 H           0.9715   13.5243    9.0349 H       1  UNL1        0.0620
      7 C           1.5310   12.1138    7.5351 C.ar    1  UNL1       -0.0615
      8 H           1.2798   12.7792    6.7208 H       1  UNL1        0.0618
      9 C           2.0121   10.8414    7.2613 C.ar    1  UNL1       -0.0617
     10 H           2.1477   10.5153    6.2411 H       1  UNL1        0.0618
     11 C           2.2898    9.9861    8.3148 C.ar    1  UNL1       -0.0615
     12 H           2.6303    8.9788    8.1160 H       1  UNL1        0.0618
     13 C           2.1191   10.4039    9.6199 C.ar    1  UNL1       -0.0586
     14 H           2.3026    9.7043   10.4271 H       1  UNL1        0.0620
@<TRIPOS>BOND
     1    10     9    1
     2     8     7    1
     3     9     7   ar
     4     9    11   ar
     5     7     5   ar
     6    12    11    1
     7    11    13   ar
     8     5     6    1
     9     5     4   ar
    10    13     4   ar
    11    13    14    1
    12     4     1    1
    13     1     3    1
    14     1     2    1
