@<TRIPOS>MOLECULE
1
 14 14 0 0 0
SMALL
GASTEIGER

@<TRIPOS>ATOM
      1 C           4.2317    2.8041    3.4384 C.3     1  UNL1       -0.0237
      2 H           4.2743    3.3079    2.4642 H       1  UNL1        0.0316
      3 H           5.0658    2.0942    3.5185 H       1  UNL1        0.0316
      4 C           2.9553    2.1136    3.5838 C.ar    1  UNL1       -0.0470
      5 C           2.8459    0.9014    4.2884 C.ar    1  UNL1       -0.0586
      6 H           3.7385    0.4665    4.7253 H       1  UNL1        0.0620
      7 C           1.6373    0.2466    4.4135 C.ar    1  UNL1       -0.0615
      8 H           1.5859   -0.6876    4.9566 H       1  UNL1        0.0618
      9 C           0.4905    0.7724    3.8371 C.ar    1  UNL1       -0.0617
     10 H          -0.4532    0.2548    3.9288 H       1  UNL1        0.0618
     11 C           0.5763    1.9607    3.1227 C.ar    1  UNL1       -0.0615
     12 H          -0.3090    2.3699    2.6547 H       1  UNL1        0.0618
     13 C           1.7810    2.6178    2.9939 C.ar    1  UNL1       -0.0586
     14 H           1.8380    3.5341    2.4188 H       1  UNL1        0.0620
@<TRIPOS>BOND
     1    14    13    1
     2     2     1    1
     3    12    11    1
     4    13    11   ar
     5    13     4   ar
     6    11     9   ar
     7     1     3    1
     8     1     4    1
     9     4     5   ar
    10     9    10    1
    11     9     7   ar
    12     5     7   ar
    13     5     6    1
    14     7     8    1
