@<TRIPOS>MOLECULE
1
 14 14 0 0 0
SMALL
GASTEIGER

@<TRIPOS>ATOM
      1 C           3.6226   14.9493   10.4690 C.3     1  UNL1       -0.0237
      2 H           2.7646   14.9451    9.7842 H       1  UNL1        0.0316
      3 H           3.6896   15.9354   10.9501 H       1  UNL1        0.0316
      4 C           4.8453   14.6664    9.7212 C.ar    1  UNL1       -0.0470
      5 C           6.0728   15.2616   10.0625 C.ar    1  UNL1       -0.0586
      6 H           6.1098   15.9424   10.9044 H       1  UNL1        0.0620
      7 C           7.2199   15.0133    9.3349 C.ar    1  UNL1       -0.0615
      8 H           8.1474   15.4923    9.6172 H       1  UNL1        0.0618
      9 C           7.1865   14.1703    8.2351 C.ar    1  UNL1       -0.0617
     10 H           8.0810   13.9867    7.6596 H       1  UNL1        0.0618
     11 C           5.9838   13.5781    7.8741 C.ar    1  UNL1       -0.0615
     12 H           5.9429   12.9309    7.0086 H       1  UNL1        0.0618
     13 C           4.8362   13.8170    8.6008 C.ar    1  UNL1       -0.0586
     14 H           3.9043   13.3514    8.3053 H       1  UNL1        0.0620
@<TRIPOS>BOND
     1    12    11    1
     2    10     9    1
     3    11     9   ar
     4    11    13   ar
     5     9     7   ar
     6    14    13    1
     7    13     4   ar
     8     7     8    1
     9     7     5   ar
    10     4     5   ar
    11     4     1    1
    12     2     1    1
    13     5     6    1
    14     1     3    1
