@<TRIPOS>MOLECULE
1
 14 14 0 0 0
SMALL
GASTEIGER

@<TRIPOS>ATOM
      1 C          11.4333    4.5412   14.2377 C.3     1  UNL1       -0.0237
      2 H          12.2005    4.6433   13.4548 H       1  UNL1        0.0316
      3 H          10.6241    5.2559   14.0231 H       1  UNL1        0.0316
      4 C          12.0214    4.8423   15.5502 C.ar    1  UNL1       -0.0470
      5 C          13.4075    4.9425   15.7271 C.ar    1  UNL1       -0.0586
      6 H          14.0578    4.8191   14.8706 H       1  UNL1        0.0620
      7 C          13.9603    5.2229   16.9621 C.ar    1  UNL1       -0.0615
      8 H          15.0348    5.2900   17.0656 H       1  UNL1        0.0618
      9 C          13.1465    5.4349   18.0627 C.ar    1  UNL1       -0.0617
     10 H          13.5777    5.6568   19.0275 H       1  UNL1        0.0618
     11 C          11.7703    5.3819   17.9038 C.ar    1  UNL1       -0.0615
     12 H          11.1248    5.5734   18.7500 H       1  UNL1        0.0618
     13 C          11.2183    5.0950   16.6715 C.ar    1  UNL1       -0.0586
     14 H          10.1401    5.0842   16.5623 H       1  UNL1        0.0620
@<TRIPOS>BOND
     1     2     1    1
     2     3     1    1
     3     1     4    1
     4     6     5    1
     5     4     5   ar
     6     4    13   ar
     7     5     7   ar
     8    14    13    1
     9    13    11   ar
    10     7     8    1
    11     7     9   ar
    12    11     9   ar
    13    11    12    1
    14     9    10    1
