@<TRIPOS>MOLECULE
1
 14 14 0 0 0
SMALL
GASTEIGER

@<TRIPOS>ATOM
      1 C           3.9451    6.2999    4.0014 C.3     1  UNL1       -0.0237
      2 H           3.4778    7.0022    4.7101 H       1  UNL1        0.0316
      3 H           4.9525    6.6629    3.7471 H       1  UNL1        0.0316
      4 C           3.1426    6.1927    2.7834 C.ar    1  UNL1       -0.0470
      5 C           1.7741    6.5027    2.7563 C.ar    1  UNL1       -0.0586
      6 H           1.2987    6.8816    3.6523 H       1  UNL1        0.0620
      7 C           1.0230    6.3550    1.6070 C.ar    1  UNL1       -0.0615
      8 H          -0.0314    6.5959    1.6229 H       1  UNL1        0.0618
      9 C           1.6122    5.9140    0.4334 C.ar    1  UNL1       -0.0617
     10 H           1.0232    5.7945   -0.4637 H       1  UNL1        0.0618
     11 C           2.9745    5.6501    0.4210 C.ar    1  UNL1       -0.0615
     12 H           3.4509    5.3338   -0.4965 H       1  UNL1        0.0618
     13 C           3.7256    5.7934    1.5679 C.ar    1  UNL1       -0.0586
     14 H           4.7913    5.6002    1.5402 H       1  UNL1        0.0620
@<TRIPOS>BOND
     1    12    11    1
     2    10     9    1
     3    11     9   ar
     4    11    13   ar
     5     9     7   ar
     6    14    13    1
     7    13     4   ar
     8     7     8    1
     9     7     5   ar
    10     5     4   ar
    11     5     6    1
    12     4     1    1
    13     3     1    1
    14     1     2    1
