@<TRIPOS>MOLECULE
1
 14 14 0 0 0
SMALL
GASTEIGER

@<TRIPOS>ATOM
      1 C           8.6094    3.0872   14.8989 C.3     1  UNL1       -0.0237
      2 H           8.7173    3.5290   15.9003 H       1  UNL1        0.0316
      3 H           8.0688    2.1386   14.9834 H       1  UNL1        0.0316
      4 C           7.8745    3.9865   13.9970 C.ar    1  UNL1       -0.0470
      5 C           7.8670    5.3763   14.1715 C.ar    1  UNL1       -0.0586
      6 H           8.4024    5.8129   15.0066 H       1  UNL1        0.0620
      7 C           7.1725    6.2040   13.3101 C.ar    1  UNL1       -0.0615
      8 H           7.1816    7.2729   13.4714 H       1  UNL1        0.0618
      9 C           6.4579    5.6719   12.2498 C.ar    1  UNL1       -0.0617
     10 H           5.9124    6.3201   11.5799 H       1  UNL1        0.0618
     11 C           6.4424    4.2976   12.0649 C.ar    1  UNL1       -0.0615
     12 H           5.8820    3.8693   11.2456 H       1  UNL1        0.0618
     13 C           7.1309    3.4688   12.9267 C.ar    1  UNL1       -0.0586
     14 H           7.0976    2.3966   12.7759 H       1  UNL1        0.0620
@<TRIPOS>BOND
     1    12    11    1
     2    10     9    1
     3    11     9   ar
     4    11    13   ar
     5     9     7   ar
     6    14    13    1
     7    13     4   ar
     8     7     8    1
     9     7     5   ar
    10     4     5   ar
    11     4     1    1
    12     5     6    1
    13     1     3    1
    14     1     2    1
