@<TRIPOS>MOLECULE
2
 16 15 0 0 0
SMALL
GASTEIGER

@<TRIPOS>ATOM
      1 SI          0.4466   -1.4397    5.8995 Si      1  UNL1        0.0000
      2 C           1.6260    0.0124    6.0706 C.3     1  UNL1        0.0000
      3 C           0.5291   -2.7288    7.3315 C.3     1  UNL1        0.0000
      4 C          -1.3719   -0.8457    5.8347 C.3     1  UNL1        0.0000
      5 C           0.8018   -2.4584    4.3093 C.3     1  UNL1        0.0000
      6 H           2.6254   -0.4008    6.2861 H       1  UNL1        0.0000
      7 H           1.3256    0.5486    6.9893 H       1  UNL1        0.0000
      8 H           1.5233   -3.1582    7.4209 H       1  UNL1        0.0000
      9 H          -0.1667   -3.5495    7.1829 H       1  UNL1        0.0000
     10 H           0.2890   -2.2682    8.2854 H       1  UNL1        0.0000
     11 H          -1.6512   -0.3501    6.7595 H       1  UNL1        0.0000
     12 H          -2.0633   -1.6689    5.6826 H       1  UNL1        0.0000
     13 H          -1.5174   -0.1352    5.0265 H       1  UNL1        0.0000
     14 H           0.7752   -1.8201    3.4311 H       1  UNL1        0.0000
     15 H           0.0651   -3.2435    4.1690 H       1  UNL1        0.0000
     16 H           1.7772   -2.9358    4.3495 H       1  UNL1        0.0000
@<TRIPOS>BOND
     1    14     5    1
     2    15     5    1
     3     5    16    1
     4     5     1    1
     5    13     4    1
     6    12     4    1
     7     4     1    1
     8     4    11    1
     9     1     2    1
    10     1     3    1
    11     2     6    1
    12     2     7    1
    13     9     3    1
    14     3     8    1
    15     3    10    1
