@<TRIPOS>MOLECULE
2
 16 15 0 0 0
SMALL
GASTEIGER

@<TRIPOS>ATOM
      1 SI          4.3280    4.7833    7.3851 Si      1  UNL1        0.0000
      2 C           5.2194    3.4684    6.3708 C.3     1  UNL1        0.0000
      3 C           4.6977    4.6662    9.2736 C.3     1  UNL1        0.0000
      4 C           2.4208    4.7428    7.2351 C.3     1  UNL1        0.0000
      5 C           4.8896    6.5496    6.8792 C.3     1  UNL1        0.0000
      6 H           4.8890    2.4944    6.7775 H       1  UNL1        0.0000
      7 H           6.2842    3.5461    6.6520 H       1  UNL1        0.0000
      8 H           4.3495    3.7213    9.6803 H       1  UNL1        0.0000
      9 H           4.2115    5.4594    9.8338 H       1  UNL1        0.0000
     10 H           5.7634    4.7324    9.4761 H       1  UNL1        0.0000
     11 H           2.0980    4.9125    6.2127 H       1  UNL1        0.0000
     12 H           1.9638    5.5091    7.8550 H       1  UNL1        0.0000
     13 H           2.0193    3.7861    7.5534 H       1  UNL1        0.0000
     14 H           5.9002    6.7610    7.2166 H       1  UNL1        0.0000
     15 H           4.2418    7.3067    7.3096 H       1  UNL1        0.0000
     16 H           4.8613    6.6655    5.8008 H       1  UNL1        0.0000
@<TRIPOS>BOND
     1    16     5    1
     2    11     4    1
     3     2     7    1
     4     2     6    1
     5     2     1    1
     6     5    14    1
     7     5    15    1
     8     5     1    1
     9     4     1    1
    10     4    13    1
    11     4    12    1
    12     1     3    1
    13     3    10    1
    14     3     8    1
    15     3     9    1
