@<TRIPOS>MOLECULE
2
 16 15 0 0 0
SMALL
GASTEIGER

@<TRIPOS>ATOM
      1 SI         -0.1216    2.4385    1.3441 Si      1  UNL1        0.0000
      2 C           0.3064    1.3094    2.7775 C.3     1  UNL1        0.0000
      3 C          -0.0349    4.2702    1.9256 C.3     1  UNL1        0.0000
      4 C          -1.8766    2.2099    0.5851 C.3     1  UNL1        0.0000
      5 C           1.0475    2.1914   -0.1701 C.3     1  UNL1        0.0000
      6 H           0.4104    0.2848    2.3865 H       1  UNL1        0.0000
      7 H          -0.6091    1.2776    3.3990 H       1  UNL1        0.0000
      8 H          -1.0212    4.7236    1.9277 H       1  UNL1        0.0000
      9 H           0.5978    4.8893    1.2942 H       1  UNL1        0.0000
     10 H           0.3446    4.3090    2.9464 H       1  UNL1        0.0000
     11 H          -2.0028    1.2101    0.1791 H       1  UNL1        0.0000
     12 H          -2.0755    2.9149   -0.2178 H       1  UNL1        0.0000
     13 H          -2.6443    2.3509    1.3408 H       1  UNL1        0.0000
     14 H           2.0927    2.3739    0.0604 H       1  UNL1        0.0000
     15 H           0.7748    2.8604   -0.9808 H       1  UNL1        0.0000
     16 H           0.9678    1.1775   -0.5510 H       1  UNL1        0.0000
@<TRIPOS>BOND
     1    15     5    1
     2    16     5    1
     3    12     4    1
     4     5    14    1
     5     5     1    1
     6    11     4    1
     7     4    13    1
     8     4     1    1
     9     9     3    1
    10     1     3    1
    11     1     2    1
    12     3     8    1
    13     3    10    1
    14     6     2    1
    15     2     7    1
