@<TRIPOS>MOLECULE
2
 16 15 0 0 0
SMALL
GASTEIGER

@<TRIPOS>ATOM
      1 SI          2.7667    4.7404    1.6022 Si      1  UNL1        0.0000
      2 C           3.6058    4.6500    3.2820 C.3     1  UNL1        0.0000
      3 C           2.5977    2.9758    0.8570 C.3     1  UNL1        0.0000
      4 C           0.9922    5.4811    1.6303 C.3     1  UNL1        0.0000
      5 C           3.7158    5.8615    0.3537 C.3     1  UNL1        0.0000
      6 H           2.7839    4.4560    3.9953 H       1  UNL1        0.0000
      7 H           3.9481    5.6649    3.5402 H       1  UNL1        0.0000
      8 H           3.0663    2.2511    1.5229 H       1  UNL1        0.0000
      9 H           3.0469    2.8829   -0.1285 H       1  UNL1        0.0000
     10 H           1.5534    2.6974    0.7540 H       1  UNL1        0.0000
     11 H           0.3502    4.9133    2.2979 H       1  UNL1        0.0000
     12 H           0.5273    5.4757    0.6481 H       1  UNL1        0.0000
     13 H           0.9971    6.5086    1.9827 H       1  UNL1        0.0000
     14 H           3.8324    6.8652    0.7515 H       1  UNL1        0.0000
     15 H           3.1656    5.9482   -0.5783 H       1  UNL1        0.0000
     16 H           4.7061    5.4900    0.1088 H       1  UNL1        0.0000
@<TRIPOS>BOND
     1    15     5    1
     2     9     3    1
     3    16     5    1
     4     5    14    1
     5     5     1    1
     6    12     4    1
     7    10     3    1
     8     3     8    1
     9     3     1    1
    10     1     4    1
    11     1     2    1
    12     4    13    1
    13     4    11    1
    14     2     7    1
    15     2     6    1
