@<TRIPOS>MOLECULE
4
 44 44 0 0 0
SMALL
GASTEIGER

@<TRIPOS>ATOM
      1 SI         -4.1653   -2.5528    7.2396 Si      1  UNL1        0.0000
      2 SI         -2.9951   -5.1939    8.3024 Si      1  UNL1        0.0000
      3 N          -2.8352   -3.6612    7.4557 N.3     1  UNL1        0.0000
      4 C          -0.3941   -4.1340    6.5789 C.3     1  UNL1        0.0000
      5 C           0.9662   -3.8067    6.6398 C.3     1  UNL1        0.0000
      6 C           1.3803   -2.5772    7.1705 C.2     1  UNL1        0.0000
      7 C           0.4723   -1.6140    7.6383 C.2     1  UNL1        0.0000
      8 C          -0.9024   -1.8561    7.6167 C.2     1  UNL1        0.0000
      9 C           2.0099   -4.7997    6.1946 C.3     1  UNL1        0.0000
     10 C           1.0020   -0.3299    8.2215 C.3     1  UNL1        0.0000
     11 C          -4.6541   -1.6093    8.8294 C.3     1  UNL1        0.0000
     12 C          -5.6918   -3.4684    6.5471 C.3     1  UNL1        0.0000
     13 C          -3.6555   -1.2702    5.9204 C.3     1  UNL1        0.0000
     14 C          -3.4453   -6.6148    7.1007 C.3     1  UNL1        0.0000
     15 C          -4.3487   -5.0871    9.6401 C.3     1  UNL1        0.0000
     16 C          -1.3759   -5.6222    9.2167 C.3     1  UNL1        0.0000
     17 B          -1.4472   -3.2138    7.1873 B       1  UNL1        0.0000
     18 H          -0.6208   -5.1542    6.2789 H       1  UNL1        0.0000
     19 H           2.4417   -2.3862    7.2771 H       1  UNL1        0.0000
     20 H          -1.5166   -1.1002    8.1027 H       1  UNL1        0.0000
     21 H           1.6986   -5.8149    6.4340 H       1  UNL1        0.0000
     22 H           2.9620   -4.6071    6.6850 H       1  UNL1        0.0000
     23 H           2.1560   -4.7327    5.1157 H       1  UNL1        0.0000
     24 H           0.7586    0.5013    7.5593 H       1  UNL1        0.0000
     25 H           2.0819   -0.3669    8.3466 H       1  UNL1        0.0000
     26 H           0.5431   -0.1325    9.1890 H       1  UNL1        0.0000
     27 H          -3.7812   -1.2757    9.3822 H       1  UNL1        0.0000
     28 H          -5.2405   -2.2337    9.4945 H       1  UNL1        0.0000
     29 H          -5.2513   -0.7327    8.5952 H       1  UNL1        0.0000
     30 H          -5.5745   -3.7374    5.5024 H       1  UNL1        0.0000
     31 H          -6.5673   -2.8314    6.6220 H       1  UNL1        0.0000
     32 H          -5.9034   -4.3773    7.0973 H       1  UNL1        0.0000
     33 H          -2.8672   -1.6896    5.2661 H       1  UNL1        0.0000
     34 H          -3.2679   -0.3579    6.3656 H       1  UNL1        0.0000
     35 H          -4.4911   -0.9866    5.2876 H       1  UNL1        0.0000
     36 H          -4.3697   -6.4186    6.5668 H       1  UNL1        0.0000
     37 H          -3.5796   -7.5402    7.6524 H       1  UNL1        0.0000
     38 H          -2.6695   -6.7885    6.3618 H       1  UNL1        0.0000
     39 H          -4.0935   -4.3591   10.4023 H       1  UNL1        0.0000
     40 H          -4.4596   -6.0487   10.1305 H       1  UNL1        0.0000
     41 H          -5.3158   -4.8152    9.2351 H       1  UNL1        0.0000
     42 H          -0.6631   -6.1268    8.5753 H       1  UNL1        0.0000
     43 H          -1.5701   -6.2734   10.0633 H       1  UNL1        0.0000
     44 H          -0.8934   -4.7244    9.5883 H       1  UNL1        0.0000
@<TRIPOS>BOND
     1    23     9    1
     2    33    13    1
     3    35    13    1
     4    30    12    1
     5    13    34    1
     6    13     1    1
     7     9    21    1
     8     9     5    1
     9     9    22    1
    10    18     4    1
    11    38    14    1
    12    12    31    1
    13    12    32    1
    14    12     1    1
    15    36    14    1
    16     4     5    1
    17     4    17    1
    18     5     6    1
    19    14    37    1
    20    14     2    1
    21     6    19    1
    22     6     7    2
    23    17     3    1
    24    17     8    2
    25     1     3    1
    26     1    11    1
    27     3     2    1
    28    24    10    1
    29     8     7    1
    30     8    20    1
    31     7    10    1
    32    10    25    1
    33    10    26    1
    34     2    16    1
    35     2    15    1
    36    42    16    1
    37    29    11    1
    38    11    27    1
    39    11    28    1
    40    16    44    1
    41    16    43    1
    42    41    15    1
    43    15    40    1
    44    15    39    1
