@<TRIPOS>MOLECULE
1
 44 44 0 0 0
SMALL
GASTEIGER

@<TRIPOS>ATOM
      1 C          -0.7747   -4.1340    3.5040 C.3     1  UNL1        0.0000
      2 C          -2.1350   -3.8066    3.4430 C.3     1  UNL1        0.0000
      3 C          -2.5489   -2.5769    2.9123 C.2     1  UNL1        0.0000
      4 C          -3.1787   -4.7995    3.8880 C.3     1  UNL1        0.0000
      5 H          -2.8675   -5.8147    3.6484 H       1  UNL1        0.0000
      6 H          -4.1309   -4.6067    3.3977 H       1  UNL1        0.0000
      7 H          -3.3249   -4.7327    4.9669 H       1  UNL1        0.0000
      8 C          -1.6408   -1.6138    2.4447 C.2     1  UNL1        0.0000
      9 C          -0.2661   -1.8560    2.4664 C.2     1  UNL1        0.0000
     10 C          -2.1704   -0.3296    1.8616 C.3     1  UNL1        0.0000
     11 H          -1.9272    0.5015    2.5242 H       1  UNL1        0.0000
     12 H          -3.2503   -0.3665    1.7362 H       1  UNL1        0.0000
     13 H          -1.7113   -0.1319    0.8943 H       1  UNL1        0.0000
     14 B           0.2786   -3.2137    2.8958 B       1  UNL1        0.0000
     15 N           1.6665   -3.6613    2.6274 N.3     1  UNL1        0.0000
     16 SI          2.9967   -2.5529    2.8434 Si      1  UNL1        0.0000
     17 C           3.4855   -1.6098    1.2535 C.3     1  UNL1        0.0000
     18 H           2.6126   -1.2794    0.6987 H       1  UNL1        0.0000
     19 H           4.0749   -2.2332    0.5902 H       1  UNL1        0.0000
     20 H           4.0797   -0.7310    1.4877 H       1  UNL1        0.0000
     21 C           4.5231   -3.4684    3.5362 C.3     1  UNL1        0.0000
     22 H           4.4058   -3.7373    4.5809 H       1  UNL1        0.0000
     23 H           5.3986   -2.8314    3.4613 H       1  UNL1        0.0000
     24 H           4.7348   -4.3774    2.9861 H       1  UNL1        0.0000
     25 C           2.4869   -1.2702    4.1626 C.3     1  UNL1        0.0000
     26 H           1.6986   -1.6896    4.8169 H       1  UNL1        0.0000
     27 H           2.0993   -0.3579    3.7174 H       1  UNL1        0.0000
     28 H           3.3226   -0.9866    4.7953 H       1  UNL1        0.0000
     29 SI          1.8265   -5.1939    1.7807 Si      1  UNL1        0.0000
     30 C           2.2767   -6.6149    2.9824 C.3     1  UNL1        0.0000
     31 H           3.2011   -6.4186    3.5163 H       1  UNL1        0.0000
     32 H           2.4112   -7.5402    2.4306 H       1  UNL1        0.0000
     33 H           1.5008   -6.7887    3.7211 H       1  UNL1        0.0000
     34 C           3.1801   -5.0869    0.4430 C.3     1  UNL1        0.0000
     35 H           2.9253   -4.3584   -0.3187 H       1  UNL1        0.0000
     36 H           3.2908   -6.0483   -0.0478 H       1  UNL1        0.0000
     37 H           4.1473   -4.8155    0.8483 H       1  UNL1        0.0000
     38 C           0.2073   -5.6223    0.8663 C.3     1  UNL1        0.0000
     39 H          -0.5055   -6.1269    1.5077 H       1  UNL1        0.0000
     40 H           0.4016   -6.2736    0.0198 H       1  UNL1        0.0000
     41 H          -0.2751   -4.7246    0.4945 H       1  UNL1        0.0000
     42 H          -0.5481   -5.1541    3.8041 H       1  UNL1        0.0000
     43 H           0.3482   -1.1001    1.9804 H       1  UNL1        0.0000
     44 H          -3.6103   -2.3858    2.8056 H       1  UNL1        0.0000
@<TRIPOS>BOND
     1    35    34    1
     2    36    34    1
     3    40    38    1
     4    34    37    1
     5    34    29    1
     6    41    38    1
     7    19    17    1
     8    18    17    1
     9    38    39    1
    10    38    29    1
    11    13    10    1
    12    17    20    1
    13    17    16    1
    14    12    10    1
    15    29    15    1
    16    29    30    1
    17    10     8    1
    18    10    11    1
    19    43     9    1
    20    32    30    1
    21     8     9    1
    22     8     3    2
    23     9    14    2
    24    15    16    1
    25    15    14    1
    26    44     3    1
    27    16    21    1
    28    16    25    1
    29    14     1    1
    30     3     2    1
    31    30    31    1
    32    30    33    1
    33    24    21    1
    34     6     4    1
    35     2     1    1
    36     2     4    1
    37    23    21    1
    38     1    42    1
    39    21    22    1
    40     5     4    1
    41    27    25    1
    42     4     7    1
    43    25    28    1
    44    25    26    1
