@<TRIPOS>MOLECULE
2
 16 15 0 0 0
SMALL
GASTEIGER

@<TRIPOS>ATOM
      1 SI          6.0775    5.0845   -4.4354 Si      1  UNL1        0.0000
      2 C           4.4349    5.5598   -3.6539 C.3     1  UNL1        0.0000
      3 H           3.8824    6.1632   -4.3837 H       1  UNL1        0.0000
      4 H           4.6342    6.2246   -2.8021 H       1  UNL1        0.0000
      5 C           5.9374    3.5686   -5.6036 C.3     1  UNL1        0.0000
      6 H           5.4850    3.8370   -6.5526 H       1  UNL1        0.0000
      7 H           5.3331    2.7835   -5.1557 H       1  UNL1        0.0000
      8 H           6.9156    3.1481   -5.8201 H       1  UNL1        0.0000
      9 C           7.4167    4.6427   -3.1327 C.3     1  UNL1        0.0000
     10 H           7.3234    5.2542   -2.2409 H       1  UNL1        0.0000
     11 H           8.4151    4.7950   -3.5305 H       1  UNL1        0.0000
     12 H           7.3426    3.6027   -2.8312 H       1  UNL1        0.0000
     13 C           6.8475    6.4860   -5.5063 C.3     1  UNL1        0.0000
     14 H           7.0922    7.3544   -4.9023 H       1  UNL1        0.0000
     15 H           6.1554    6.8122   -6.2767 H       1  UNL1        0.0000
     16 H           7.7585    6.1650   -6.0025 H       1  UNL1        0.0000
@<TRIPOS>BOND
     1     6     5    1
     2    15    13    1
     3    16    13    1
     4     8     5    1
     5     5     7    1
     6     5     1    1
     7    13    14    1
     8    13     1    1
     9     1     2    1
    10     1     9    1
    11     3     2    1
    12     2     4    1
    13    11     9    1
    14     9    12    1
    15     9    10    1
