@<TRIPOS>MOLECULE
2
 16 15 0 0 0
SMALL
GASTEIGER

@<TRIPOS>ATOM
      1 SI          1.6875    2.6166    0.3218 Si      1  UNL1        0.0000
      2 C           1.7577    4.0694   -0.8720 C.3     1  UNL1        0.0000
      3 H           2.1692    4.9395   -0.3433 H       1  UNL1        0.0000
      4 H           0.7277    4.3443   -1.1314 H       1  UNL1        0.0000
      5 C          -0.0377    2.3859    1.1370 C.3     1  UNL1        0.0000
      6 H          -0.8097    2.2423    0.3881 H       1  UNL1        0.0000
      7 H          -0.3115    3.2586    1.7217 H       1  UNL1        0.0000
      8 H          -0.0614    1.5273    1.8015 H       1  UNL1        0.0000
      9 C           2.1129    0.9452   -0.5278 C.3     1  UNL1        0.0000
     10 H           1.8889    0.9777   -1.5922 H       1  UNL1        0.0000
     11 H           1.5532    0.1189   -0.0990 H       1  UNL1        0.0000
     12 H           3.1688    0.7089   -0.4234 H       1  UNL1        0.0000
     13 C           2.9102    2.8035    1.7893 C.3     1  UNL1        0.0000
     14 H           3.9347    2.8853    1.4425 H       1  UNL1        0.0000
     15 H           2.8567    1.9496    2.4577 H       1  UNL1        0.0000
     16 H           2.6914    3.6911    2.3742 H       1  UNL1        0.0000
@<TRIPOS>BOND
     1    10     9    1
     2     4     2    1
     3     2     3    1
     4     2     1    1
     5     9    12    1
     6     9    11    1
     7     9     1    1
     8     1     5    1
     9     1    13    1
    10     6     5    1
    11     5     7    1
    12     5     8    1
    13    14    13    1
    14    13    16    1
    15    13    15    1
