@<TRIPOS>MOLECULE
2
 16 15 0 0 0
SMALL
GASTEIGER

@<TRIPOS>ATOM
      1 SI          9.0805    2.6742    5.1226 Si      1  UNL1        0.0000
      2 C           8.4308    1.8359    6.6768 C.3     1  UNL1        0.0000
      3 H           9.2269    1.2001    7.0835 H       1  UNL1        0.0000
      4 H           7.6291    1.1452    6.3879 H       1  UNL1        0.0000
      5 C           9.3715    1.5037    3.6282 C.3     1  UNL1        0.0000
      6 H           8.4474    1.0262    3.3175 H       1  UNL1        0.0000
      7 H          10.0757    0.7168    3.8796 H       1  UNL1        0.0000
      8 H           9.7693    2.0364    2.7698 H       1  UNL1        0.0000
      9 C           7.8092    3.9778    4.5136 C.3     1  UNL1        0.0000
     10 H           6.9325    3.4959    4.0895 H       1  UNL1        0.0000
     11 H           8.2322    4.6147    3.7426 H       1  UNL1        0.0000
     12 H           7.4731    4.6174    5.3276 H       1  UNL1        0.0000
     13 C          10.7693    3.4929    5.4988 C.3     1  UNL1        0.0000
     14 H          10.7873    3.9214    6.4968 H       1  UNL1        0.0000
     15 H          10.9992    4.2910    4.8006 H       1  UNL1        0.0000
     16 H          11.5731    2.7656    5.4398 H       1  UNL1        0.0000
@<TRIPOS>BOND
     1     8     5    1
     2     6     5    1
     3     5     7    1
     4     5     1    1
     5    11     9    1
     6    10     9    1
     7     9     1    1
     8     9    12    1
     9    15    13    1
    10     1    13    1
    11     1     2    1
    12    16    13    1
    13    13    14    1
    14     4     2    1
    15     2     3    1
