@<TRIPOS>MOLECULE
2
 16 15 0 0 0
SMALL
GASTEIGER

@<TRIPOS>ATOM
      1 SI         -4.1515   -5.4647   -3.3945 Si      1  UNL1        0.0000
      2 C          -3.8892   -3.6311   -3.7509 C.3     1  UNL1        0.0000
      3 H          -4.7046   -3.0580   -3.2947 H       1  UNL1        0.0000
      4 H          -3.9781   -3.4708   -4.8330 H       1  UNL1        0.0000
      5 C          -3.2376   -6.4933   -4.7287 C.3     1  UNL1        0.0000
      6 H          -3.0273   -7.5004   -4.3838 H       1  UNL1        0.0000
      7 H          -2.2935   -6.0319   -5.0035 H       1  UNL1        0.0000
      8 H          -3.8354   -6.5770   -5.6308 H       1  UNL1        0.0000
      9 C          -5.9807   -6.0446   -3.3915 C.3     1  UNL1        0.0000
     10 H          -6.5492   -5.5342   -2.6203 H       1  UNL1        0.0000
     11 H          -6.0643   -7.1111   -3.2070 H       1  UNL1        0.0000
     12 H          -6.4617   -5.8379   -4.3425 H       1  UNL1        0.0000
     13 C          -3.4428   -5.8847   -1.6626 C.3     1  UNL1        0.0000
     14 H          -4.0093   -5.3846   -0.8828 H       1  UNL1        0.0000
     15 H          -2.4013   -5.5732   -1.5680 H       1  UNL1        0.0000
     16 H          -3.4867   -6.9511   -1.4620 H       1  UNL1        0.0000
@<TRIPOS>BOND
     1     8     5    1
     2     7     5    1
     3     4     2    1
     4     5     6    1
     5     5     1    1
     6    12     9    1
     7     2     1    1
     8     2     3    1
     9     1     9    1
    10     1    13    1
    11     9    11    1
    12     9    10    1
    13    13    15    1
    14    13    16    1
    15    13    14    1
