@<TRIPOS>MOLECULE
2
 16 15 0 0 0
SMALL
GASTEIGER

@<TRIPOS>ATOM
      1 SI         30.4580    8.3179    5.2275 Si      1  UNL1        0.0000
      2 C          29.0294    9.3984    4.6507 C.3     1  UNL1        0.0000
      3 H          28.0835    8.9527    4.9809 H       1  UNL1        0.0000
      4 H          28.9865    9.3942    3.5540 H       1  UNL1        0.0000
      5 C          30.4955    6.5338    4.5211 C.3     1  UNL1        0.0000
      6 H          31.3502    5.9726    4.8867 H       1  UNL1        0.0000
      7 H          30.5508    6.5445    3.4369 H       1  UNL1        0.0000
      8 H          29.6010    5.9833    4.7955 H       1  UNL1        0.0000
      9 C          30.3703    8.1467    7.1373 C.3     1  UNL1        0.0000
     10 H          31.2444    7.6371    7.5308 H       1  UNL1        0.0000
     11 H          29.5008    7.5675    7.4345 H       1  UNL1        0.0000
     12 H          30.3072    9.1201    7.6176 H       1  UNL1        0.0000
     13 C          32.1322    9.1284    4.7600 C.3     1  UNL1        0.0000
     14 H          32.9236    8.8246    5.4381 H       1  UNL1        0.0000
     15 H          32.0723   10.2162    4.7850 H       1  UNL1        0.0000
     16 H          32.4394    8.8408    3.7605 H       1  UNL1        0.0000
@<TRIPOS>BOND
     1     7     5    1
     2     4     2    1
     3    16    13    1
     4     5     8    1
     5     5     6    1
     6     5     1    1
     7     2     3    1
     8     2     1    1
     9    13    15    1
    10    13     1    1
    11    13    14    1
    12     1     9    1
    13     9    11    1
    14     9    10    1
    15     9    12    1
