@<TRIPOS>MOLECULE
2
 16 15 0 0 0
SMALL
GASTEIGER

@<TRIPOS>ATOM
      1 SI         25.8570   12.3621    4.4929 Si      1  UNL1        0.0000
      2 C          27.3031   13.0199    5.5008 C.3     1  UNL1        0.0000
      3 H          26.9952   13.1521    6.5455 H       1  UNL1        0.0000
      4 H          27.5831   14.0160    5.1382 H       1  UNL1        0.0000
      5 C          24.3916   13.5755    4.2290 C.3     1  UNL1        0.0000
      6 H          23.6110   13.1336    3.6170 H       1  UNL1        0.0000
      7 H          24.7155   14.4878    3.7374 H       1  UNL1        0.0000
      8 H          23.9430   13.8593    5.1760 H       1  UNL1        0.0000
      9 C          25.1279   10.8199    5.3693 C.3     1  UNL1        0.0000
     10 H          24.3269   10.3765    4.7865 H       1  UNL1        0.0000
     11 H          24.7181   11.0746    6.3415 H       1  UNL1        0.0000
     12 H          25.8894   10.0594    5.5184 H       1  UNL1        0.0000
     13 C          26.4799   11.8250    2.7539 C.3     1  UNL1        0.0000
     14 H          26.1776   10.8073    2.5263 H       1  UNL1        0.0000
     15 H          27.5693   11.8673    2.6887 H       1  UNL1        0.0000
     16 H          26.0830   12.4615    1.9689 H       1  UNL1        0.0000
@<TRIPOS>BOND
     1    16    13    1
     2    14    13    1
     3    15    13    1
     4    13     1    1
     5     6     5    1
     6     7     5    1
     7     5     1    1
     8     5     8    1
     9     1     9    1
    10     1     2    1
    11    10     9    1
    12     4     2    1
    13     9    12    1
    14     9    11    1
    15     2     3    1
