@<TRIPOS>MOLECULE
1
 15 14 0 0 0
SMALL
GASTEIGER

@<TRIPOS>ATOM
      1 C          13.4873    3.8086    6.3427 C.1     1  UNL1        0.0000
      2 C          14.1226    2.7812    6.4980 C.1     1  UNL1        0.0000
      3 SI         15.1587    1.2674    6.6172 Si      1  UNL1        0.0000
      4 C          16.7736    1.6531    7.5609 C.3     1  UNL1        0.0000
      5 H          17.3162    2.4617    7.0811 H       1  UNL1        0.0000
      6 H          17.4331    0.7904    7.5976 H       1  UNL1        0.0000
      7 H          16.5715    1.9550    8.5844 H       1  UNL1        0.0000
      8 C          14.2221   -0.1188    7.5432 C.3     1  UNL1        0.0000
      9 H          13.9055    0.2158    8.5270 H       1  UNL1        0.0000
     10 H          14.8435   -0.9996    7.6801 H       1  UNL1        0.0000
     11 H          13.3333   -0.4265    6.9994 H       1  UNL1        0.0000
     12 C          15.5892    0.6778    4.8526 C.3     1  UNL1        0.0000
     13 H          14.6974    0.3749    4.3118 H       1  UNL1        0.0000
     14 H          16.2720   -0.1668    4.8601 H       1  UNL1        0.0000
     15 H          16.0563    1.4782    4.2859 H       1  UNL1        0.0000
@<TRIPOS>BOND
     1    15    12    1
     2    13    12    1
     3    12    14    1
     4    12     3    1
     5     1     2    3
     6     2     3    1
     7     3     8    1
     8     3     4    1
     9    11     8    1
    10     5     4    1
    11     8    10    1
    12     8     9    1
    13     4     6    1
    14     4     7    1
