@<TRIPOS>MOLECULE
2
 15 14 0 0 0
SMALL
GASTEIGER

@<TRIPOS>ATOM
      1 N           3.8063    3.2397    2.4505 N.3     1  UNL1       -0.2219
      2 C           4.2145    3.0222    3.5170 C.3     1  UNL1        0.1072
      3 C           3.2168    3.4333    1.1803 C.3     1  UNL1        0.0290
      4 C           4.1035    2.7540    0.1353 C.3     1  UNL1       -0.0458
      5 C           3.1262    4.9396    0.9261 C.3     1  UNL1       -0.0458
      6 C           1.8273    2.7927    1.2224 C.3     1  UNL1       -0.0458
      7 H           5.1119    3.1586    0.1649 H       1  UNL1        0.0248
      8 H           3.6886    2.9231   -0.8539 H       1  UNL1        0.0248
      9 H           4.1494    1.6834    0.3137 H       1  UNL1        0.0248
     10 H           2.5259    5.4232    1.6930 H       1  UNL1        0.0248
     11 H           2.6603    5.1165   -0.0386 H       1  UNL1        0.0248
     12 H           4.1162    5.3891    0.9204 H       1  UNL1        0.0248
     13 H           1.9021    1.7394    1.4807 H       1  UNL1        0.0248
     14 H           1.3549    2.8823    0.2487 H       1  UNL1        0.0248
     15 H           1.1999    3.2830    1.9626 H       1  UNL1        0.0248
@<TRIPOS>BOND
     1     8     4    1
     2    11     5    1
     3     4     7    1
     4     4     9    1
     5     4     3    1
     6    14     6    1
     7    12     5    1
     8     5     3    1
     9     5    10    1
    10     3     6    1
    11     3     1    1
    12     6    13    1
    13     6    15    1
    14     1     2    1
