@<TRIPOS>MOLECULE
2
 16 15 0 0 0
SMALL
GASTEIGER

@<TRIPOS>ATOM
      1 SI          0.0699    3.9226    6.3086 Si      1  UNL1        0.0000
      2 C           1.3353    3.0687    5.1945 C.3     1  UNL1        0.0000
      3 H           1.5135    2.0364    5.5316 H       1  UNL1        0.0000
      4 H           2.3035    3.5859    5.2519 H       1  UNL1        0.0000
      5 C          -1.6445    3.0888    6.1148 C.3     1  UNL1        0.0000
      6 H          -1.6923    2.1355    6.6327 H       1  UNL1        0.0000
      7 H          -1.8506    2.9119    5.0609 H       1  UNL1        0.0000
      8 H          -2.4363    3.7140    6.5161 H       1  UNL1        0.0000
      9 C          -0.1162    5.7697    5.8272 C.3     1  UNL1        0.0000
     10 H           0.8058    6.3242    5.9757 H       1  UNL1        0.0000
     11 H          -0.8800    6.2521    6.4294 H       1  UNL1        0.0000
     12 H          -0.4094    5.8669    4.7847 H       1  UNL1        0.0000
     13 C           0.5361    3.8687    8.1731 C.3     1  UNL1        0.0000
     14 H           1.4732    4.3828    8.3635 H       1  UNL1        0.0000
     15 H           0.6475    2.8480    8.5259 H       1  UNL1        0.0000
     16 H          -0.2250    4.3434    8.7839 H       1  UNL1        0.0000
@<TRIPOS>BOND
     1    12     9    1
     2     7     5    1
     3     2     4    1
     4     2     3    1
     5     2     1    1
     6     9    10    1
     7     9     1    1
     8     9    11    1
     9     5     1    1
    10     5     8    1
    11     5     6    1
    12     1    13    1
    13    13    14    1
    14    13    15    1
    15    13    16    1
