@<TRIPOS>MOLECULE
2
 16 15 0 0 0
SMALL
GASTEIGER

@<TRIPOS>ATOM
      1 SI         24.5161    2.6584   22.6311 Si      1  UNL1        0.0000
      2 C          24.8125    4.4231   23.2307 C.3     1  UNL1        0.0000
      3 H          25.1001    5.0163   22.3542 H       1  UNL1        0.0000
      4 H          25.7165    4.3812   23.8544 H       1  UNL1        0.0000
      5 C          23.4927    2.5636   21.0081 C.3     1  UNL1        0.0000
      6 H          22.4800    2.9317   21.1345 H       1  UNL1        0.0000
      7 H          23.4207    1.5349   20.6682 H       1  UNL1        0.0000
      8 H          23.9570    3.1326   20.2089 H       1  UNL1        0.0000
      9 C          23.6140    1.5158   23.8770 C.3     1  UNL1        0.0000
     10 H          24.1941    1.3912   24.7841 H       1  UNL1        0.0000
     11 H          23.4603    0.5291   23.4493 H       1  UNL1        0.0000
     12 H          22.6392    1.9031   24.1586 H       1  UNL1        0.0000
     13 C          26.1624    1.7503   22.2201 C.3     1  UNL1        0.0000
     14 H          26.7304    2.2830   21.4630 H       1  UNL1        0.0000
     15 H          25.9902    0.7440   21.8501 H       1  UNL1        0.0000
     16 H          26.7932    1.6682   23.1002 H       1  UNL1        0.0000
@<TRIPOS>BOND
     1     8     5    1
     2     7     5    1
     3     5     6    1
     4     5     1    1
     5    14    13    1
     6    15    13    1
     7    13     1    1
     8    13    16    1
     9     3     2    1
    10     1     2    1
    11     1     9    1
    12     2     4    1
    13    11     9    1
    14     9    12    1
    15     9    10    1
