@<TRIPOS>MOLECULE
2
 16 15 0 0 0
SMALL
GASTEIGER

@<TRIPOS>ATOM
      1 SI         25.1595    4.0054   27.3076 Si      1  UNL1        0.0000
      2 C          23.5004    4.2030   26.4408 C.3     1  UNL1        0.0000
      3 H          22.7361    4.4688   27.1773 H       1  UNL1        0.0000
      4 H          23.2191    3.2118   26.0714 H       1  UNL1        0.0000
      5 C          26.2303    2.6122   26.5456 C.3     1  UNL1        0.0000
      6 H          25.7882    1.6375   26.7248 H       1  UNL1        0.0000
      7 H          27.2281    2.5981   26.9741 H       1  UNL1        0.0000
      8 H          26.3296    2.7348   25.4725 H       1  UNL1        0.0000
      9 C          25.0276    3.5870   29.1810 C.3     1  UNL1        0.0000
     10 H          24.4523    4.3357   29.7175 H       1  UNL1        0.0000
     11 H          26.0047    3.5277   29.6508 H       1  UNL1        0.0000
     12 H          24.5349    2.6318   29.3322 H       1  UNL1        0.0000
     13 C          26.2078    5.6192   27.2049 C.3     1  UNL1        0.0000
     14 H          25.8089    6.2715   26.4290 H       1  UNL1        0.0000
     15 H          27.2447    5.4045   26.9627 H       1  UNL1        0.0000
     16 H          26.2059    6.1649   28.1440 H       1  UNL1        0.0000
@<TRIPOS>BOND
     1     8     5    1
     2     4     2    1
     3    14    13    1
     4     2     3    1
     5     2     1    1
     6     5     6    1
     7     5     7    1
     8     5     1    1
     9    15    13    1
    10    13     1    1
    11    13    16    1
    12     1     9    1
    13     9    12    1
    14     9    11    1
    15     9    10    1
