@<TRIPOS>MOLECULE
2
 16 15 0 0 0
SMALL
GASTEIGER

@<TRIPOS>ATOM
      1 SI          4.0817   -2.9396   14.6176 Si      1  UNL1        0.0000
      2 C           4.7488   -1.2126   14.2350 C.3     1  UNL1        0.0000
      3 H           5.4002   -1.2997   13.3506 H       1  UNL1        0.0000
      4 H           5.4078   -0.8934   15.0621 H       1  UNL1        0.0000
      5 C           2.4985   -3.2103   13.5678 C.3     1  UNL1        0.0000
      6 H           1.7864   -2.3992   13.7262 H       1  UNL1        0.0000
      7 H           2.0011   -4.1433   13.8133 H       1  UNL1        0.0000
      8 H           2.7354   -3.2355   12.5080 H       1  UNL1        0.0000
      9 C           5.2956   -4.3643   14.1867 C.3     1  UNL1        0.0000
     10 H           5.5870   -4.3267   13.1414 H       1  UNL1        0.0000
     11 H           4.8486   -5.3372   14.3662 H       1  UNL1        0.0000
     12 H           6.2026   -4.3067   14.7810 H       1  UNL1        0.0000
     13 C           3.6265   -3.1525   16.4668 C.3     1  UNL1        0.0000
     14 H           4.4753   -2.9431   17.1109 H       1  UNL1        0.0000
     15 H           3.3037   -4.1681   16.6748 H       1  UNL1        0.0000
     16 H           2.8200   -2.4869   16.7559 H       1  UNL1        0.0000
@<TRIPOS>BOND
     1     8     5    1
     2    10     9    1
     3     3     2    1
     4     5     6    1
     5     5     7    1
     6     5     1    1
     7     9    11    1
     8     9     1    1
     9     9    12    1
    10     2     1    1
    11     2     4    1
    12     1    13    1
    13    13    15    1
    14    13    16    1
    15    13    14    1
