@<TRIPOS>MOLECULE
2
 16 15 0 0 0
SMALL
GASTEIGER

@<TRIPOS>ATOM
      1 SI          1.9309    1.8894   10.8459 Si      1  UNL1        0.0000
      2 C           2.6068    0.3661   11.7335 C.3     1  UNL1        0.0000
      3 H           3.4457   -0.0247   11.1339 H       1  UNL1        0.0000
      4 H           1.8322   -0.4165   11.6715 H       1  UNL1        0.0000
      5 C           3.0183    3.4261   11.2340 C.3     1  UNL1        0.0000
      6 H           3.1749    3.5252   12.3066 H       1  UNL1        0.0000
      7 H           2.5549    4.3416   10.8788 H       1  UNL1        0.0000
      8 H           3.9905    3.3471   10.7571 H       1  UNL1        0.0000
      9 C           1.9007    1.7294    8.9320 C.3     1  UNL1        0.0000
     10 H           2.8869    1.4994    8.5395 H       1  UNL1        0.0000
     11 H           1.5653    2.6459    8.4555 H       1  UNL1        0.0000
     12 H           1.2327    0.9338    8.6170 H       1  UNL1        0.0000
     13 C           0.1417    2.3065   11.3911 C.3     1  UNL1        0.0000
     14 H          -0.4802    1.4168   11.4130 H       1  UNL1        0.0000
     15 H          -0.3220    3.0108   10.7070 H       1  UNL1        0.0000
     16 H           0.1190    2.7506   12.3812 H       1  UNL1        0.0000
@<TRIPOS>BOND
     1    11     9    1
     2    10     9    1
     3    12     9    1
     4     9     1    1
     5    15    13    1
     6     8     5    1
     7     1     5    1
     8     1    13    1
     9     1     2    1
    10     7     5    1
    11     3     2    1
    12     5     6    1
    13    13    14    1
    14    13    16    1
    15     4     2    1
