@<TRIPOS>MOLECULE
2
 16 15 0 0 0
SMALL
GASTEIGER

@<TRIPOS>ATOM
      1 SI          2.6922    3.6267    0.0722 Si      1  UNL1        0.0000
      2 C           4.2923    2.9481    0.8087 C.3     1  UNL1        0.0000
      3 H           5.0372    3.7601    0.7832 H       1  UNL1        0.0000
      4 H           4.6920    2.1768    0.1313 H       1  UNL1        0.0000
      5 C           2.4099    5.4382    0.6287 C.3     1  UNL1        0.0000
      6 H           2.5142    5.5452    1.7039 H       1  UNL1        0.0000
      7 H           1.4207    5.7924    0.3545 H       1  UNL1        0.0000
      8 H           3.1333    6.1009    0.1640 H       1  UNL1        0.0000
      9 C           1.1757    2.5697    0.6294 C.3     1  UNL1        0.0000
     10 H           0.9215    1.8148   -0.1101 H       1  UNL1        0.0000
     11 H           0.2939    3.1890    0.7642 H       1  UNL1        0.0000
     12 H           1.3707    2.0625    1.5758 H       1  UNL1        0.0000
     13 C           2.6352    3.6264   -1.8482 C.3     1  UNL1        0.0000
     14 H           3.4136    4.2595   -2.2622 H       1  UNL1        0.0000
     15 H           1.6834    3.9911   -2.2225 H       1  UNL1        0.0000
     16 H           2.7829    2.6273   -2.2490 H       1  UNL1        0.0000
@<TRIPOS>BOND
     1    14    13    1
     2    16    13    1
     3    15    13    1
     4    13     1    1
     5    10     9    1
     6     1     5    1
     7     1     9    1
     8     1     2    1
     9     4     2    1
    10     8     5    1
    11     7     5    1
    12     5     6    1
    13     9    11    1
    14     9    12    1
    15     3     2    1
