@<TRIPOS>MOLECULE
2
 16 15 0 0 0
SMALL
GASTEIGER

@<TRIPOS>ATOM
      1 SI          0.0267    1.9865    9.0112 Si      1  UNL1        0.0000
      2 C           1.5439    1.9860   10.1362 C.3     1  UNL1        0.0000
      3 H           1.2013    2.0212   11.1837 H       1  UNL1        0.0000
      4 H           2.0734    2.9352    9.9673 H       1  UNL1        0.0000
      5 C           0.3068    0.7647    7.5593 C.3     1  UNL1        0.0000
      6 H           1.0792    1.1363    6.8922 H       1  UNL1        0.0000
      7 H          -0.5934    0.6139    6.9709 H       1  UNL1        0.0000
      8 H           0.6318   -0.2083    7.9266 H       1  UNL1        0.0000
      9 C          -0.3570    3.6957    8.2281 C.3     1  UNL1        0.0000
     10 H          -0.6020    4.4351    8.9845 H       1  UNL1        0.0000
     11 H          -1.1953    3.6404    7.5404 H       1  UNL1        0.0000
     12 H           0.4965    4.0694    7.6709 H       1  UNL1        0.0000
     13 C          -1.5757    1.4587    9.9249 C.3     1  UNL1        0.0000
     14 H          -1.4889    0.4602   10.3416 H       1  UNL1        0.0000
     15 H          -2.4284    1.4556    9.2531 H       1  UNL1        0.0000
     16 H          -1.8058    2.1351   10.7424 H       1  UNL1        0.0000
@<TRIPOS>BOND
     1     6     5    1
     2     7     5    1
     3    11     9    1
     4     5     8    1
     5     5     1    1
     6    12     9    1
     7     9    10    1
     8     9     1    1
     9     1    13    1
    10     1     2    1
    11    15    13    1
    12    13    14    1
    13    13    16    1
    14     4     2    1
    15     2     3    1
