@<TRIPOS>MOLECULE
2
 16 15 0 0 0
SMALL
GASTEIGER

@<TRIPOS>ATOM
      1 SI          3.3211    3.8309    6.4190 Si      1  UNL1        0.0000
      2 C           5.0533    3.1110    6.6354 C.3     1  UNL1        0.0000
      3 H           5.7476    3.6647    5.9822 H       1  UNL1        0.0000
      4 H           5.0451    2.0787    6.2540 H       1  UNL1        0.0000
      5 C           3.3668    5.6671    5.8643 C.3     1  UNL1        0.0000
      6 H           3.8558    6.2938    6.6034 H       1  UNL1        0.0000
      7 H           2.3639    6.0569    5.7195 H       1  UNL1        0.0000
      8 H           3.9010    5.7855    4.9265 H       1  UNL1        0.0000
      9 C           2.3762    3.7525    8.0953 C.3     1  UNL1        0.0000
     10 H           1.5163    3.0933    8.0399 H       1  UNL1        0.0000
     11 H           2.0137    4.7304    8.3976 H       1  UNL1        0.0000
     12 H           3.0318    3.3760    8.8869 H       1  UNL1        0.0000
     13 C           2.2466    2.9138    5.1197 C.3     1  UNL1        0.0000
     14 H           2.6772    2.9883    4.1259 H       1  UNL1        0.0000
     15 H           1.2413    3.3213    5.0729 H       1  UNL1        0.0000
     16 H           2.1603    1.8585    5.3595 H       1  UNL1        0.0000
@<TRIPOS>BOND
     1    14    13    1
     2     8     5    1
     3    15    13    1
     4    13    16    1
     5    13     1    1
     6     7     5    1
     7     5     1    1
     8     5     6    1
     9     3     2    1
    10     4     2    1
    11     1     2    1
    12     1     9    1
    13    10     9    1
    14     9    11    1
    15     9    12    1
