@<TRIPOS>MOLECULE
2
 16 15 0 0 0
SMALL
GASTEIGER

@<TRIPOS>ATOM
      1 SI          4.5347    1.5385    6.8300 Si      1  UNL1        0.0000
      2 C           4.0359    0.1002    7.9443 C.3     1  UNL1        0.0000
      3 H           4.9350   -0.5160    8.1235 H       1  UNL1        0.0000
      4 H           3.3612   -0.5446    7.3571 H       1  UNL1        0.0000
      5 C           6.4425    1.6468    6.5992 C.3     1  UNL1        0.0000
      6 H           6.9723    1.6883    7.5467 H       1  UNL1        0.0000
      7 H           6.7225    2.5294    6.0320 H       1  UNL1        0.0000
      8 H           6.8160    0.7827    6.0582 H       1  UNL1        0.0000
      9 C           3.8065    1.4241    5.0613 C.3     1  UNL1        0.0000
     10 H           4.1667    0.5429    4.5396 H       1  UNL1        0.0000
     11 H           4.0705    2.2907    4.4629 H       1  UNL1        0.0000
     12 H           2.7228    1.3655    5.0896 H       1  UNL1        0.0000
     13 C           3.9596    3.2239    7.5444 C.3     1  UNL1        0.0000
     14 H           2.8837    3.3289    7.4457 H       1  UNL1        0.0000
     15 H           4.4217    4.0628    7.0317 H       1  UNL1        0.0000
     16 H           4.1959    3.3056    8.6017 H       1  UNL1        0.0000
@<TRIPOS>BOND
     1    11     9    1
     2    10     9    1
     3     9    12    1
     4     9     1    1
     5     7     5    1
     6     8     5    1
     7     5     1    1
     8     5     6    1
     9     1    13    1
    10     1     2    1
    11    15    13    1
    12     4     2    1
    13    14    13    1
    14    13    16    1
    15     2     3    1
