@<TRIPOS>MOLECULE
2
 16 15 0 0 0
SMALL
GASTEIGER

@<TRIPOS>ATOM
      1 SI          6.4810   12.1212    4.7164 Si      1  UNL1        0.0000
      2 C           4.8925   11.2122    4.2615 C.3     1  UNL1        0.0000
      3 H           4.1380   11.9805    4.0200 H       1  UNL1        0.0000
      4 H           4.5098   10.6985    5.1603 H       1  UNL1        0.0000
      5 C           7.8117   10.8621    5.2768 C.3     1  UNL1        0.0000
      6 H           7.5525   10.4127    6.2310 H       1  UNL1        0.0000
      7 H           8.7799   11.3370    5.3976 H       1  UNL1        0.0000
      8 H           7.9214   10.0618    4.5502 H       1  UNL1        0.0000
      9 C           6.3103   13.4151    6.1254 C.3     1  UNL1        0.0000
     10 H           5.5691   14.1699    5.8801 H       1  UNL1        0.0000
     11 H           7.2491   13.9282    6.3117 H       1  UNL1        0.0000
     12 H           6.0038   12.9476    7.0564 H       1  UNL1        0.0000
     13 C           7.0910   13.0579    3.1596 C.3     1  UNL1        0.0000
     14 H           6.9814   12.4396    2.2698 H       1  UNL1        0.0000
     15 H           8.1347   13.3425    3.2418 H       1  UNL1        0.0000
     16 H           6.5185   13.9665    3.0006 H       1  UNL1        0.0000
@<TRIPOS>BOND
     1    14    13    1
     2    16    13    1
     3    13    15    1
     4    13     1    1
     5     3     2    1
     6     2     1    1
     7     2     4    1
     8     8     5    1
     9     1     5    1
    10     1     9    1
    11     5     7    1
    12     5     6    1
    13    10     9    1
    14     9    11    1
    15     9    12    1
