@<TRIPOS>MOLECULE
2
 16 15 0 0 0
SMALL
GASTEIGER

@<TRIPOS>ATOM
      1 SI          4.6345   -0.2763    9.1436 Si      1  UNL1        0.0000
      2 C           5.2477    1.3199    9.9359 C.3     1  UNL1        0.0000
      3 H           6.0889    1.0803   10.6112 H       1  UNL1        0.0000
      4 H           4.4378    1.6715   10.5975 H       1  UNL1        0.0000
      5 C           2.9619    0.0207    8.2672 C.3     1  UNL1        0.0000
      6 H           2.1993    0.3312    8.9740 H       1  UNL1        0.0000
      7 H           2.6036   -0.8784    7.7752 H       1  UNL1        0.0000
      8 H           3.0525    0.8018    7.5189 H       1  UNL1        0.0000
      9 C           5.8658   -0.9305    7.8196 C.3     1  UNL1        0.0000
     10 H           6.2235   -0.1195    7.1906 H       1  UNL1        0.0000
     11 H           5.3866   -1.6595    7.1738 H       1  UNL1        0.0000
     12 H           6.7264   -1.4178    8.2689 H       1  UNL1        0.0000
     13 C           4.3824   -1.7322   10.3746 C.3     1  UNL1        0.0000
     14 H           5.3035   -1.9803   10.8947 H       1  UNL1        0.0000
     15 H           4.0416   -2.6309    9.8692 H       1  UNL1        0.0000
     16 H           3.6420   -1.4814   11.1281 H       1  UNL1        0.0000
@<TRIPOS>BOND
     1    11     9    1
     2    10     9    1
     3     8     5    1
     4     7     5    1
     5     9    12    1
     6     9     1    1
     7     5     6    1
     8     5     1    1
     9     1     2    1
    10     1    13    1
    11    15    13    1
    12     2     4    1
    13     2     3    1
    14    13    14    1
    15    13    16    1
