@<TRIPOS>MOLECULE
2
 16 15 0 0 0
SMALL
GASTEIGER

@<TRIPOS>ATOM
      1 SI          7.5963    7.5072    1.8359 Si      1  UNL1        0.0000
      2 C           6.8472    9.2335    1.6683 C.3     1  UNL1        0.0000
      3 H           6.7516    9.4444    0.5878 H       1  UNL1        0.0000
      4 H           7.6083    9.9437    2.0267 H       1  UNL1        0.0000
      5 C           9.0320    7.1492    0.6123 C.3     1  UNL1        0.0000
      6 H           8.7020    7.2303   -0.4194 H       1  UNL1        0.0000
      7 H           9.4347    6.1498    0.7479 H       1  UNL1        0.0000
      8 H           9.8483    7.8521    0.7487 H       1  UNL1        0.0000
      9 C           8.3196    7.2571    3.5945 C.3     1  UNL1        0.0000
     10 H           9.2300    7.8337    3.7227 H       1  UNL1        0.0000
     11 H           8.5688    6.2158    3.7747 H       1  UNL1        0.0000
     12 H           7.6241    7.5705    4.3672 H       1  UNL1        0.0000
     13 C           6.2860    6.1340    1.5346 C.3     1  UNL1        0.0000
     14 H           5.2956    6.4416    1.8623 H       1  UNL1        0.0000
     15 H           6.5379    5.2206    2.0655 H       1  UNL1        0.0000
     16 H           6.2164    5.8826    0.4811 H       1  UNL1        0.0000
@<TRIPOS>BOND
     1     6     5    1
     2    16    13    1
     3     3     2    1
     4     5     7    1
     5     5     8    1
     6     5     1    1
     7    13     1    1
     8    13    14    1
     9    13    15    1
    10     2     1    1
    11     2     4    1
    12     1     9    1
    13     9    10    1
    14     9    11    1
    15     9    12    1
