@<TRIPOS>MOLECULE
2
 16 15 0 0 0
SMALL
GASTEIGER

@<TRIPOS>ATOM
      1 SI          7.7405    1.5578    3.6435 Si      1  UNL1        0.0000
      2 C           6.0932    0.7863    3.1329 C.3     1  UNL1        0.0000
      3 H           5.8379   -0.0136    3.8494 H       1  UNL1        0.0000
      4 H           6.2493    0.2784    2.1671 H       1  UNL1        0.0000
      5 C           9.2806    0.6838    2.9011 C.3     1  UNL1        0.0000
      6 H           9.3586   -0.3444    3.2412 H       1  UNL1        0.0000
      7 H          10.1997    1.1906    3.1787 H       1  UNL1        0.0000
      8 H           9.2322    0.6666    1.8165 H       1  UNL1        0.0000
      9 C           7.9854    1.5425    5.5456 C.3     1  UNL1        0.0000
     10 H           7.1449    1.9927    6.0633 H       1  UNL1        0.0000
     11 H           8.8771    2.0929    5.8291 H       1  UNL1        0.0000
     12 H           8.0969    0.5289    5.9196 H       1  UNL1        0.0000
     13 C           7.7817    3.3717    3.0182 C.3     1  UNL1        0.0000
     14 H           7.8370    3.4013    1.9335 H       1  UNL1        0.0000
     15 H           8.6381    3.9171    3.4027 H       1  UNL1        0.0000
     16 H           6.8812    3.9103    3.3154 H       1  UNL1        0.0000
@<TRIPOS>BOND
     1     8     5    1
     2    14    13    1
     3     4     2    1
     4     5     7    1
     5     5     6    1
     6     5     1    1
     7    13    16    1
     8    13    15    1
     9    13     1    1
    10     2     1    1
    11     2     3    1
    12     1     9    1
    13     9    11    1
    14     9    12    1
    15     9    10    1
