@<TRIPOS>MOLECULE
1
 37 39 0 0 0
SMALL
GASTEIGER

@<TRIPOS>ATOM
      1 C           7.3010    3.7826    4.2891 C.3     1  UNL1       -0.0200
      2 H           7.5050    4.8523    4.1441 H       1  UNL1        0.0322
      3 H           8.2699    3.2594    4.2618 H       1  UNL1        0.0322
      4 P           6.4650    3.2366    2.8556 P.3     1  UNL1       -0.0422
      5 C           4.8717    4.0728    2.6187 C.ar    1  UNL1       -0.0191
      6 C           4.8348    5.4579    2.7552 C.ar    1  UNL1       -0.0539
      7 H           5.7312    5.9991    3.0223 H       1  UNL1        0.0624
      8 C           3.6484    6.1399    2.5528 C.ar    1  UNL1       -0.0612
      9 H           3.6234    7.2137    2.6607 H       1  UNL1        0.0618
     10 C           2.4965    5.4456    2.2210 C.ar    1  UNL1       -0.0617
     11 H           1.5687    5.9778    2.0749 H       1  UNL1        0.0618
     12 C           2.5335    4.0680    2.0782 C.ar    1  UNL1       -0.0612
     13 H           1.6355    3.5272    1.8203 H       1  UNL1        0.0618
     14 C           3.7183    3.3801    2.2687 C.ar    1  UNL1       -0.0539
     15 H           3.7458    2.3055    2.1608 H       1  UNL1        0.0624
     16 C           7.3544    3.5177    1.2795 C.ar    1  UNL1       -0.0191
     17 C           6.9748    4.4693    0.3413 C.ar    1  UNL1       -0.0539
     18 H           6.0639    5.0341    0.4812 H       1  UNL1        0.0624
     19 C           7.7577    4.6806   -0.7807 C.ar    1  UNL1       -0.0612
     20 H           7.4570    5.4166   -1.5115 H       1  UNL1        0.0618
     21 C           8.9210    3.9531   -0.9680 C.ar    1  UNL1       -0.0617
     22 H           9.5280    4.1222   -1.8444 H       1  UNL1        0.0618
     23 C           9.3079    3.0090   -0.0286 C.ar    1  UNL1       -0.0612
     24 H          10.2162    2.4430   -0.1722 H       1  UNL1        0.0618
     25 C           8.5314    2.7961    1.0932 C.ar    1  UNL1       -0.0539
     26 H           8.8232    2.0620    1.8338 H       1  UNL1        0.0624
     27 C           6.2365    1.4399    2.8450 C.ar    1  UNL1       -0.0191
     28 C           5.8495    0.8117    1.6632 C.ar    1  UNL1       -0.0539
     29 H           5.6832    1.4019    0.7712 H       1  UNL1        0.0624
     30 C           5.6912   -0.5611    1.6332 C.ar    1  UNL1       -0.0612
     31 H           5.3860   -1.0484    0.7191 H       1  UNL1        0.0618
     32 C           5.9289   -1.3099    2.7756 C.ar    1  UNL1       -0.0617
     33 H           5.8068   -2.3824    2.7496 H       1  UNL1        0.0618
     34 C           6.3259   -0.6847    3.9463 C.ar    1  UNL1       -0.0612
     35 H           6.5151   -1.2705    4.8332 H       1  UNL1        0.0618
     36 C           6.4798    0.6907    3.9893 C.ar    1  UNL1       -0.0539
     37 H           6.7759    1.1867    4.9079 H       1  UNL1        0.0624
@<TRIPOS>BOND
     1    22    21    1
     2    20    19    1
     3    21    19   ar
     4    21    23   ar
     5    19    17   ar
     6    24    23    1
     7    23    25   ar
     8    17    18    1
     9    17    16   ar
    10    31    30    1
    11    29    28    1
    12    25    16   ar
    13    25    26    1
    14    16     4    1
    15    30    28   ar
    16    30    32   ar
    17    28    27   ar
    18    13    12    1
    19    11    10    1
    20    12    10   ar
    21    12    14   ar
    22    15    14    1
    23    10     8   ar
    24    14     5   ar
    25     8     9    1
    26     8     6   ar
    27     5     6   ar
    28     5     4    1
    29    33    32    1
    30     6     7    1
    31    32    34   ar
    32    27     4    1
    33    27    36   ar
    34     4     1    1
    35    34    36   ar
    36    34    35    1
    37    36    37    1
    38     2     1    1
    39     3     1    1
