@<TRIPOS>MOLECULE
2
 16 15 0 0 0
SMALL
GASTEIGER

@<TRIPOS>ATOM
      1 SI        -10.7284    1.9893   14.4613 Si      1  UNL1        0.0000
      2 C         -11.5338    1.3705   12.8640 C.3     1  UNL1        0.0000
      3 H         -12.4549    0.8541   13.1682 H       1  UNL1        0.0000
      4 H         -10.8772    0.5618   12.4973 H       1  UNL1        0.0000
      5 C          -8.8225    1.7852   14.4070 C.3     1  UNL1        0.0000
      6 H          -8.5525    0.7343   14.4539 H       1  UNL1        0.0000
      7 H          -8.3470    2.2793   15.2487 H       1  UNL1        0.0000
      8 H          -8.3918    2.1886   13.4968 H       1  UNL1        0.0000
      9 C         -11.2183    3.8013   14.8578 C.3     1  UNL1        0.0000
     10 H         -10.4300    4.3327   15.3818 H       1  UNL1        0.0000
     11 H         -12.1036    3.8369   15.4854 H       1  UNL1        0.0000
     12 H         -11.4454    4.3394   13.9385 H       1  UNL1        0.0000
     13 C         -11.3006    0.9591   15.9754 C.3     1  UNL1        0.0000
     14 H         -12.3769    1.0076   16.1078 H       1  UNL1        0.0000
     15 H         -10.8429    1.3206   16.8903 H       1  UNL1        0.0000
     16 H         -11.0330   -0.0871   15.8689 H       1  UNL1        0.0000
@<TRIPOS>BOND
     1     4     2    1
     2     2     3    1
     3     2     1    1
     4     8     5    1
     5    12     9    1
     6     5     6    1
     7     5     1    1
     8     5     7    1
     9     1     9    1
    10     1    13    1
    11     9    10    1
    12     9    11    1
    13    16    13    1
    14    13    14    1
    15    13    15    1
