@<TRIPOS>MOLECULE
2
 16 15 0 0 0
SMALL
GASTEIGER

@<TRIPOS>ATOM
      1 SI        -14.8384    1.8953    9.2572 Si      1  UNL1        0.0000
      2 C         -13.5387    1.2957   10.4979 C.3     1  UNL1        0.0000
      3 H         -13.0522    0.4220   10.0315 H       1  UNL1        0.0000
      4 H         -14.0897    0.8798   11.3528 H       1  UNL1        0.0000
      5 C         -14.2553    1.6164    7.4508 C.3     1  UNL1        0.0000
      6 H         -14.8945    2.1346    6.7429 H       1  UNL1        0.0000
      7 H         -14.2869    0.5593    7.2028 H       1  UNL1        0.0000
      8 H         -13.2377    1.9568    7.2888 H       1  UNL1        0.0000
      9 C         -15.3358    3.7205    9.5774 C.3     1  UNL1        0.0000
     10 H         -16.0056    3.7912   10.4291 H       1  UNL1        0.0000
     11 H         -15.8490    4.1556    8.7249 H       1  UNL1        0.0000
     12 H         -14.4617    4.3291    9.8011 H       1  UNL1        0.0000
     13 C         -16.4698    0.8979    9.4141 C.3     1  UNL1        0.0000
     14 H         -17.2078    1.2391    8.6961 H       1  UNL1        0.0000
     15 H         -16.9059    0.9992   10.4027 H       1  UNL1        0.0000
     16 H         -16.3081   -0.1603    9.2366 H       1  UNL1        0.0000
@<TRIPOS>BOND
     1     6     5    1
     2     7     5    1
     3     8     5    1
     4     5     1    1
     5    14    13    1
     6    11     9    1
     7    16    13    1
     8     1    13    1
     9     1     9    1
    10     1     2    1
    11    13    15    1
    12     9    12    1
    13     9    10    1
    14     3     2    1
    15     2     4    1
