@<TRIPOS>MOLECULE
2
 16 15 0 0 0
SMALL
GASTEIGER

@<TRIPOS>ATOM
      1 SI          0.0931    6.0612    7.3543 Si      1  UNL1        0.0000
      2 C           0.4381    4.4380    6.4546 C.3     1  UNL1        0.0000
      3 H           0.5044    4.6352    5.3786 H       1  UNL1        0.0000
      4 H          -0.4247    3.7830    6.5941 H       1  UNL1        0.0000
      5 C           1.3190    7.4567    6.8597 C.3     1  UNL1        0.0000
      6 H           2.3468    7.0986    6.8441 H       1  UNL1        0.0000
      7 H           1.2691    8.3019    7.5411 H       1  UNL1        0.0000
      8 H           1.0858    7.8350    5.8684 H       1  UNL1        0.0000
      9 C           0.0677    5.7224    9.2479 C.3     1  UNL1        0.0000
     10 H          -0.7813    5.0950    9.5035 H       1  UNL1        0.0000
     11 H          -0.0257    6.6377    9.8251 H       1  UNL1        0.0000
     12 H           0.9707    5.2014    9.5694 H       1  UNL1        0.0000
     13 C          -1.6388    6.7803    6.9538 C.3     1  UNL1        0.0000
     14 H          -1.8197    7.7024    7.4954 H       1  UNL1        0.0000
     15 H          -2.4250    6.0846    7.2246 H       1  UNL1        0.0000
     16 H          -1.7468    6.9975    5.8966 H       1  UNL1        0.0000
@<TRIPOS>BOND
     1     3     2    1
     2     8     5    1
     3    16    13    1
     4     2     4    1
     5     2     1    1
     6     6     5    1
     7     5     1    1
     8     5     7    1
     9    13    15    1
    10    13     1    1
    11    13    14    1
    12     1     9    1
    13     9    10    1
    14     9    12    1
    15     9    11    1
