@<TRIPOS>MOLECULE
2
 16 15 0 0 0
SMALL
GASTEIGER

@<TRIPOS>ATOM
      1 SI          1.6122    1.5483    4.5957 Si      1  UNL1        0.0000
      2 C           2.8296    1.9514    6.0009 C.3     1  UNL1        0.0000
      3 H           3.8057    2.0894    5.5036 H       1  UNL1        0.0000
      4 H           2.9504    1.0452    6.6174 H       1  UNL1        0.0000
      5 C           1.6190    2.9428    3.2778 C.3     1  UNL1        0.0000
      6 H           0.6210    3.1719    2.9196 H       1  UNL1        0.0000
      7 H           2.2174    2.6665    2.4155 H       1  UNL1        0.0000
      8 H           2.0414    3.8531    3.6921 H       1  UNL1        0.0000
      9 C          -0.1552    1.2149    5.2667 C.3     1  UNL1        0.0000
     10 H          -0.2345    1.5069    6.3095 H       1  UNL1        0.0000
     11 H          -0.4050    0.1610    5.1930 H       1  UNL1        0.0000
     12 H          -0.9074    1.7635    4.7092 H       1  UNL1        0.0000
     13 C           2.1424   -0.0548    3.6791 C.3     1  UNL1        0.0000
     14 H           1.4587   -0.2843    2.8681 H       1  UNL1        0.0000
     15 H           2.1519   -0.9096    4.3482 H       1  UNL1        0.0000
     16 H           3.1366    0.0343    3.2518 H       1  UNL1        0.0000
@<TRIPOS>BOND
     1     7     5    1
     2    14    13    1
     3     6     5    1
     4    16    13    1
     5     5     8    1
     6     5     1    1
     7    13    15    1
     8    13     1    1
     9     1     9    1
    10     1     2    1
    11    12     9    1
    12    11     9    1
    13     9    10    1
    14     3     2    1
    15     2     4    1
