@<TRIPOS>MOLECULE
2
 16 15 0 0 0
SMALL
GASTEIGER

@<TRIPOS>ATOM
      1 SI          4.3457    6.8077    1.8572 Si      1  UNL1        0.0000
      2 C           3.8316    6.2389    3.5929 C.3     1  UNL1        0.0000
      3 C           5.9844    5.9697    1.3158 C.3     1  UNL1        0.0000
      4 C           2.9683    6.5310    0.5525 C.3     1  UNL1        0.0000
      5 C           4.6951    8.6918    1.8347 C.3     1  UNL1        0.0000
      6 H           3.4960    7.1499    4.1113 H       1  UNL1        0.0000
      7 H           4.7722    5.9637    4.1031 H       1  UNL1        0.0000
      8 H           5.9722    4.8971    1.4791 H       1  UNL1        0.0000
      9 H           6.1896    6.1448    0.2642 H       1  UNL1        0.0000
     10 H           6.8209    6.3724    1.8793 H       1  UNL1        0.0000
     11 H           2.3009    7.3869    0.5227 H       1  UNL1        0.0000
     12 H           3.3740    6.3992   -0.4458 H       1  UNL1        0.0000
     13 H           2.3642    5.6567    0.7920 H       1  UNL1        0.0000
     14 H           5.4911    8.9613    2.5215 H       1  UNL1        0.0000
     15 H           4.9926    9.0233    0.8454 H       1  UNL1        0.0000
     16 H           3.8128    9.2577    2.1172 H       1  UNL1        0.0000
@<TRIPOS>BOND
     1    12     4    1
     2     9     3    1
     3    11     4    1
     4     4    13    1
     5     4     1    1
     6    15     5    1
     7     3     8    1
     8     3     1    1
     9     3    10    1
    10     5     1    1
    11     5    16    1
    12     5    14    1
    13     1     2    1
    14     2     7    1
    15     2     6    1
