@<TRIPOS>MOLECULE
2
 16 15 0 0 0
SMALL
GASTEIGER

@<TRIPOS>ATOM
      1 SI          0.3207    4.9555    6.7824 Si      1  UNL1        0.0000
      2 C           1.8928    5.5417    5.9033 C.3     1  UNL1        0.0000
      3 C          -1.0576    4.6122    5.4930 C.3     1  UNL1        0.0000
      4 C          -0.3952    6.2833    7.9636 C.3     1  UNL1        0.0000
      5 C           0.6757    3.4277    7.8875 C.3     1  UNL1        0.0000
      6 H           2.7299    5.3234    6.5880 H       1  UNL1        0.0000
      7 H           1.8541    6.6380    5.8649 H       1  UNL1        0.0000
      8 H          -1.8910    4.0611    5.9193 H       1  UNL1        0.0000
      9 H          -1.4536    5.5465    5.1038 H       1  UNL1        0.0000
     10 H          -0.6675    4.0431    4.6482 H       1  UNL1        0.0000
     11 H           0.3223    6.5653    8.7272 H       1  UNL1        0.0000
     12 H          -0.6752    7.1853    7.4294 H       1  UNL1        0.0000
     13 H          -1.2822    5.9178    8.4698 H       1  UNL1        0.0000
     14 H          -0.2419    2.9347    8.1932 H       1  UNL1        0.0000
     15 H           1.2945    2.6907    7.3844 H       1  UNL1        0.0000
     16 H           1.1988    3.7280    8.7907 H       1  UNL1        0.0000
@<TRIPOS>BOND
     1    10     3    1
     2     9     3    1
     3     3     8    1
     4     3     1    1
     5     7     2    1
     6     2     6    1
     7     2     1    1
     8     1     5    1
     9     1     4    1
    10    15     5    1
    11    12     4    1
    12     5    14    1
    13     5    16    1
    14     4    13    1
    15     4    11    1
