@<TRIPOS>MOLECULE
1
 47 49 0 0 0
SMALL
GASTEIGER

@<TRIPOS>ATOM
      1 C           0.5383    4.1347    3.9769 C.3     1  UNL1        0.1959
      2 C          -0.5334    3.9562    2.0009 C.2     1  UNL1        0.0131
      3 H          -1.3209    3.6606    1.3383 H       1  UNL1        0.0797
      4 N          -0.5606    3.6580    3.3420 N.pl3   1  UNL1       -0.2762
      5 C          -1.7164    3.0265    3.8744 C.ar    1  UNL1        0.0414
      6 C          -1.7832    1.6364    3.9477 C.ar    1  UNL1       -0.0286
      7 C          -2.9819    1.0525    4.3315 C.ar    1  UNL1       -0.0541
      8 H          -3.0457   -0.0243    4.3913 H       1  UNL1        0.0623
      9 C          -4.0989    1.8181    4.6404 C.ar    1  UNL1       -0.0498
     10 C          -4.0034    3.1997    4.5597 C.ar    1  UNL1       -0.0541
     11 H          -4.8643    3.8078    4.7969 H       1  UNL1        0.0623
     12 C          -2.8258    3.8207    4.1687 C.ar    1  UNL1       -0.0286
     13 C          -0.5818    0.8074    3.6288 C.3     1  UNL1       -0.0379
     14 H          -0.2133    1.0232    2.6264 H       1  UNL1        0.0278
     15 H          -0.8120   -0.2521    3.6967 H       1  UNL1        0.0278
     16 H           0.2160    1.0441    4.3320 H       1  UNL1        0.0278
     17 C          -5.3700    1.1617    5.0810 C.3     1  UNL1       -0.0397
     18 H          -5.3256    0.9568    6.1511 H       1  UNL1        0.0278
     19 H          -5.5172    0.2157    4.5653 H       1  UNL1        0.0278
     20 H          -6.2265    1.8047    4.8948 H       1  UNL1        0.0278
     21 C          -2.7462    5.3120    4.0355 C.3     1  UNL1       -0.0379
     22 H          -1.7988    5.6845    4.4217 H       1  UNL1        0.0278
     23 H          -3.5600    5.7898    4.5746 H       1  UNL1        0.0278
     24 H          -2.8168    5.6011    2.9860 H       1  UNL1        0.0278
     25 C           0.6098    4.6362    1.7788 C.2     1  UNL1        0.0131
     26 H           1.0136    5.0618    0.8833 H       1  UNL1        0.0797
     27 N           1.2463    4.7370    2.9875 N.pl3   1  UNL1       -0.2762
     28 C           2.4392    5.4949    3.1253 C.ar    1  UNL1        0.0414
     29 C           2.3459    6.7866    3.6467 C.ar    1  UNL1       -0.0286
     30 C           3.5009    7.5427    3.7489 C.ar    1  UNL1       -0.0541
     31 H           3.4457    8.5384    4.1645 H       1  UNL1        0.0623
     32 C           4.7287    7.0441    3.3340 C.ar    1  UNL1       -0.0498
     33 C           4.7828    5.7731    2.7801 C.ar    1  UNL1       -0.0541
     34 H           5.7320    5.3822    2.4438 H       1  UNL1        0.0623
     35 C           3.6494    4.9839    2.6596 C.ar    1  UNL1       -0.0286
     36 C           1.0163    7.3117    4.0876 C.3     1  UNL1       -0.0379
     37 H           0.2978    7.2751    3.2681 H       1  UNL1        0.0278
     38 H           1.0987    8.3379    4.4320 H       1  UNL1        0.0278
     39 H           0.6388    6.6969    4.9046 H       1  UNL1        0.0278
     40 C           5.9738    7.8566    3.5045 C.3     1  UNL1       -0.0397
     41 H           6.3887    7.6763    4.4963 H       1  UNL1        0.0278
     42 H           5.7611    8.9196    3.4172 H       1  UNL1        0.0278
     43 H           6.7253    7.5812    2.7686 H       1  UNL1        0.0278
     44 C           3.7214    3.6159    2.0538 C.3     1  UNL1       -0.0379
     45 H           3.1956    2.8958    2.6762 H       1  UNL1        0.0278
     46 H           4.7555    3.2997    1.9508 H       1  UNL1        0.0278
     47 H           3.2606    3.6072    1.0656 H       1  UNL1        0.0278
@<TRIPOS>BOND
     1    26    25    1
     2    47    44    1
     3     3     2    1
     4    25     2    2
     5    25    27    1
     6    46    44    1
     7     2     4    1
     8    44    35    1
     9    44    45    1
    10    34    33    1
    11    14    13    1
    12    35    33   ar
    13    35    28   ar
    14    43    40    1
    15    33    32   ar
    16    24    21    1
    17    27    28    1
    18    27     1    1
    19    28    29   ar
    20    37    36    1
    21    32    40    1
    22    32    30   ar
    23     4     5    1
    24     4     1    1
    25    42    40    1
    26    40    41    1
    27    13    15    1
    28    13     6    1
    29    13    16    1
    30    29    30   ar
    31    29    36    1
    32    30    31    1
    33     5     6   ar
    34     5    12   ar
    35     6     7   ar
    36    21    12    1
    37    21    22    1
    38    21    23    1
    39    36    38    1
    40    36    39    1
    41    12    10   ar
    42     7     8    1
    43     7     9   ar
    44    10     9   ar
    45    10    11    1
    46    19    17    1
    47     9    17    1
    48    20    17    1
    49    17    18    1
