@<TRIPOS>MOLECULE
1
 15 15 0 0 0
SMALL
GASTEIGER

@<TRIPOS>ATOM
      1 C           9.2839    4.0874   13.2485 C.3     1  UNL1        0.1860
      2 N           8.6308    4.1119   14.4235 N.pl3   1  UNL1       -0.3107
      3 C           8.9291    3.0106   15.1720 C.2     1  UNL1        0.0075
      4 H           8.4986    2.8336   16.1357 H       1  UNL1        0.0793
      5 C           9.8115    2.2783   14.4528 C.2     1  UNL1        0.0075
      6 H          10.2960    1.3510   14.6791 H       1  UNL1        0.0793
      7 N          10.0171    2.9526   13.2815 N.pl3   1  UNL1       -0.3107
      8 C           7.7023    5.1263   14.8316 C.3     1  UNL1        0.0024
      9 H           8.0400    6.0896   14.4539 H       1  UNL1        0.0428
     10 H           7.6382    5.1499   15.9179 H       1  UNL1        0.0428
     11 H           6.7211    4.9125   14.4070 H       1  UNL1        0.0428
     12 C          10.9214    2.5080   12.2595 C.3     1  UNL1        0.0024
     13 H          10.4831    2.6982   11.2819 H       1  UNL1        0.0428
     14 H          11.1057    1.4410   12.3734 H       1  UNL1        0.0428
     15 H          11.8722    3.0403   12.3296 H       1  UNL1        0.0428
@<TRIPOS>BOND
     1    13    12    1
     2    12    15    1
     3    12    14    1
     4    12     7    1
     5     1     7    1
     6     1     2    1
     7     7     5    1
     8    11     8    1
     9     2     8    1
    10     2     3    1
    11     5     6    1
    12     5     3    2
    13     9     8    1
    14     8    10    1
    15     3     4    1
