@<TRIPOS>MOLECULE
24
 44 46 0 0 0
SMALL
GASTEIGER

@<TRIPOS>ATOM
      1 C           4.6388    7.1593    4.1929 C.3     1  UNL1       -0.0343
      2 H           3.9388    6.4873    4.6949 H       1  UNL1        0.0283
      3 H           4.3840    7.1804    3.1323 H       1  UNL1        0.0283
      4 C           4.5143    8.5565    4.7923 C.3     1  UNL1       -0.0514
      5 H           5.1532    9.2478    4.2399 H       1  UNL1        0.0266
      6 H           3.4853    8.9054    4.6904 H       1  UNL1        0.0266
      7 C           4.9168    8.5498    6.2642 C.3     1  UNL1       -0.0529
      8 H           4.8445    9.5592    6.6724 H       1  UNL1        0.0265
      9 H           4.2277    7.9137    6.8248 H       1  UNL1        0.0265
     10 C           6.3399    8.0257    6.4330 C.3     1  UNL1       -0.0514
     11 H           6.6003    7.9915    7.4927 H       1  UNL1        0.0266
     12 H           7.0397    8.7044    5.9433 H       1  UNL1        0.0266
     13 C           6.4695    6.6283    5.8338 C.3     1  UNL1       -0.0343
     14 H           7.4945    6.2639    5.9366 H       1  UNL1        0.0283
     15 H           5.8202    5.9484    6.3893 H       1  UNL1        0.0283
     16 C           6.0666    6.6285    4.3562 C.3     1  UNL1        0.0253
     17 H           6.7463    7.2580    3.7722 H       1  UNL1        0.0500
     18 N           6.1754    5.3028    3.7913 N.pl3   1  UNL1       -0.3043
     19 C           5.4997    4.2218    4.2944 C.2     1  UNL1        0.0085
     20 H           4.8949    4.2660    5.1754 H       1  UNL1        0.0793
     21 C           5.7616    3.1825    3.4746 C.2     1  UNL1        0.0128
     22 H           5.4389    2.1619    3.5055 H       1  UNL1        0.0797
     23 N           6.5861    3.6565    2.4896 N.pl3   1  UNL1       -0.2765
     24 C           6.8620    4.9709    2.6698 C.3     1  UNL1        0.1915
     25 C           7.0179    2.8072    1.4356 C.ar    1  UNL1        0.0414
     26 C           8.2024    2.0893    1.5878 C.ar    1  UNL1       -0.0286
     27 C           8.5961    1.2404    0.5659 C.ar    1  UNL1       -0.0541
     28 H           9.5239    0.6951    0.6617 H       1  UNL1        0.0623
     29 C           7.8243    1.0800   -0.5764 C.ar    1  UNL1       -0.0498
     30 C           6.6216    1.7666   -0.6747 C.ar    1  UNL1       -0.0541
     31 H           6.0068    1.6346   -1.5529 H       1  UNL1        0.0623
     32 C           6.1979    2.6315    0.3210 C.ar    1  UNL1       -0.0286
     33 C           9.0029    2.2428    2.8419 C.3     1  UNL1       -0.0379
     34 H           8.4421    1.8652    3.6978 H       1  UNL1        0.0278
     35 H           9.2205    3.2940    3.0151 H       1  UNL1        0.0278
     36 H           9.9385    1.6966    2.7737 H       1  UNL1        0.0278
     37 C           8.2891    0.1983   -1.6930 C.3     1  UNL1       -0.0397
     38 H           8.9302   -0.5978   -1.3221 H       1  UNL1        0.0278
     39 H           8.8633    0.7908   -2.4053 H       1  UNL1        0.0278
     40 H           7.4459   -0.2394   -2.2219 H       1  UNL1        0.0278
     41 C           4.9086    3.3831    0.2044 C.3     1  UNL1       -0.0379
     42 H           4.2416    3.1416    1.0319 H       1  UNL1        0.0278
     43 H           4.4073    3.1421   -0.7284 H       1  UNL1        0.0278
     44 H           5.1043    4.4546    0.2324 H       1  UNL1        0.0278
@<TRIPOS>BOND
     1    39    37    1
     2    40    37    1
     3    37    38    1
     4    37    29    1
     5    31    30    1
     6    43    41    1
     7    30    29   ar
     8    30    32   ar
     9    29    27   ar
    10    41    44    1
    11    41    32    1
    12    41    42    1
    13    32    25   ar
    14    27    28    1
    15    27    26   ar
    16    25    26   ar
    17    25    23    1
    18    26    33    1
    19    23    24    1
    20    23    21    1
    21    24    18    1
    22    36    33    1
    23    33    35    1
    24    33    34    1
    25     3     1    1
    26    21    22    1
    27    21    19    2
    28    17    16    1
    29    18    19    1
    30    18    16    1
    31     1    16    1
    32     1     2    1
    33     1     4    1
    34     5     4    1
    35    19    20    1
    36    16    13    1
    37     6     4    1
    38     4     7    1
    39    13    14    1
    40    13    15    1
    41    13    10    1
    42    12    10    1
    43     7    10    1
    44     7     8    1
    45     7     9    1
    46    10    11    1
