@<TRIPOS>MOLECULE
1
 44 46 0 0 0
SMALL
GASTEIGER

@<TRIPOS>ATOM
      1 C           7.2570   11.0342    9.3710 C.3     1  UNL1        0.1917
      2 C           8.3252   12.9258    9.9267 C.2     1  UNL1        0.0088
      3 H           8.5330   13.8075   10.4954 H       1  UNL1        0.0793
      4 N           7.2866   12.0838   10.2176 N.pl3   1  UNL1       -0.3005
      5 C           6.4657   12.2470   11.4026 C.3     1  UNL1        0.0476
      6 H           5.6983   11.4719   11.3530 H       1  UNL1        0.0547
      7 C           5.7708   13.6021   11.4102 C.3     1  UNL1       -0.0423
      8 H           6.4680   14.4280   11.2903 H       1  UNL1        0.0251
      9 H           5.2305   13.7248   12.3440 H       1  UNL1        0.0251
     10 H           5.0457   13.6213   10.6012 H       1  UNL1        0.0251
     11 C           7.3486   11.9522   12.5977 C.ar    1  UNL1       -0.0273
     12 C           7.8136   10.6479   12.7366 C.ar    1  UNL1       -0.0568
     13 H           7.5046    9.9093   12.0080 H       1  UNL1        0.0621
     14 C           8.6425   10.3009   13.7849 C.ar    1  UNL1       -0.0614
     15 H           8.9917    9.2837   13.8814 H       1  UNL1        0.0618
     16 C           9.0194   11.2584   14.7134 C.ar    1  UNL1       -0.0617
     17 H           9.6645   10.9914   15.5373 H       1  UNL1        0.0618
     18 C           8.5633   12.5573   14.5817 C.ar    1  UNL1       -0.0614
     19 H           8.8528   13.3073   15.3033 H       1  UNL1        0.0618
     20 C           7.7348   12.9059   13.5266 C.ar    1  UNL1       -0.0568
     21 H           7.3875   13.9240   13.4426 H       1  UNL1        0.0621
     22 C           8.9695   12.3987    8.8631 C.2     1  UNL1        0.0128
     23 H           9.8287   12.7346    8.3196 H       1  UNL1        0.0797
     24 N           8.3070   11.2446    8.5394 N.pl3   1  UNL1       -0.2765
     25 C           8.7983   10.3651    7.5389 C.ar    1  UNL1        0.0414
     26 C           8.4178   10.5459    6.2097 C.ar    1  UNL1       -0.0286
     27 C           8.9369    9.6898    5.2524 C.ar    1  UNL1       -0.0541
     28 H           8.6363    9.8090    4.2215 H       1  UNL1        0.0623
     29 C           9.8259    8.6790    5.5910 C.ar    1  UNL1       -0.0498
     30 C          10.2194    8.5496    6.9156 C.ar    1  UNL1       -0.0541
     31 H          10.9240    7.7769    7.1867 H       1  UNL1        0.0623
     32 C           9.7244    9.3864    7.9032 C.ar    1  UNL1       -0.0286
     33 C           7.4646   11.6402    5.8505 C.3     1  UNL1       -0.0379
     34 H           6.5504   11.5405    6.4312 H       1  UNL1        0.0278
     35 H           7.2171   11.6047    4.7936 H       1  UNL1        0.0278
     36 H           7.8993   12.6150    6.0720 H       1  UNL1        0.0278
     37 C          10.3368    7.7335    4.5487 C.3     1  UNL1       -0.0397
     38 H           9.6636    6.8796    4.4714 H       1  UNL1        0.0278
     39 H          11.3243    7.3611    4.8102 H       1  UNL1        0.0278
     40 H          10.3837    8.2147    3.5747 H       1  UNL1        0.0278
     41 C          10.1902    9.2689    9.3220 C.3     1  UNL1       -0.0379
     42 H           9.3559    9.3703   10.0129 H       1  UNL1        0.0278
     43 H          10.9093   10.0573    9.5473 H       1  UNL1        0.0278
     44 H          10.6707    8.3095    9.4885 H       1  UNL1        0.0278
@<TRIPOS>BOND
     1    40    37    1
     2    28    27    1
     3    38    37    1
     4    37    39    1
     5    37    29    1
     6    35    33    1
     7    27    29   ar
     8    27    26   ar
     9    29    30   ar
    10    33    36    1
    11    33    26    1
    12    33    34    1
    13    26    25   ar
    14    30    31    1
    15    30    32   ar
    16    25    32   ar
    17    25    24    1
    18    32    41    1
    19    23    22    1
    20    24    22    1
    21    24     1    1
    22    22     2    2
    23    41    44    1
    24    41    43    1
    25    41    42    1
    26     1     4    1
    27     2     4    1
    28     2     3    1
    29     4     5    1
    30    10     7    1
    31     8     7    1
    32     6     5    1
    33     5     7    1
    34     5    11    1
    35     7     9    1
    36    13    12    1
    37    11    12   ar
    38    11    20   ar
    39    12    14   ar
    40    21    20    1
    41    20    18   ar
    42    14    15    1
    43    14    16   ar
    44    18    16   ar
    45    18    19    1
    46    16    17    1
