@<TRIPOS>MOLECULE
1
 13 12 0 0 0
SMALL
GASTEIGER

@<TRIPOS>ATOM
      1 C           5.2961    4.9466    7.8303 C.3     1  UNL1        0.0000
      2 H           5.2091    5.4348    8.8046 H       1  UNL1        0.0000
      3 H           4.2712    4.7973    7.4758 H       1  UNL1        0.0000
      4 SI          6.0716    3.2431    8.1281 Si      1  UNL1        0.0000
      5 H           5.9175    2.3457    6.9555 H       1  UNL1        0.0000
      6 C           5.1404    2.3990    9.5632 C.3     1  UNL1        0.0000
      7 H           5.5302    1.4035    9.7490 H       1  UNL1        0.0000
      8 H           4.0816    2.3016    9.3467 H       1  UNL1        0.0000
      9 H           5.2356    2.9661   10.4838 H       1  UNL1        0.0000
     10 C           7.9163    3.3158    8.5969 C.3     1  UNL1        0.0000
     11 H           8.3317    2.3177    8.7040 H       1  UNL1        0.0000
     12 H           8.0566    3.8316    9.5417 H       1  UNL1        0.0000
     13 H           8.5050    3.8431    7.8525 H       1  UNL1        0.0000
@<TRIPOS>BOND
     1     5     4    1
     2     3     1    1
     3     1     4    1
     4     1     2    1
     5    13    10    1
     6     4    10    1
     7     4     6    1
     8    10    11    1
     9    10    12    1
    10     8     6    1
    11     6     7    1
    12     6     9    1
