@<TRIPOS>MOLECULE
2
 16 15 0 0 0
SMALL
GASTEIGER

@<TRIPOS>ATOM
      1 SI          2.5671   15.0708   -0.8174 Si      1  UNL1        0.0000
      2 C           3.1294   14.4356    0.8659 C.3     1  UNL1        0.0000
      3 H           2.2517   14.1982    1.4783 H       1  UNL1        0.0000
      4 H           3.6631   15.2429    1.3832 H       1  UNL1        0.0000
      5 C           1.0342   16.2215   -0.8052 C.3     1  UNL1        0.0000
      6 H           0.1659   15.7120   -0.3985 H       1  UNL1        0.0000
      7 H           0.7772   16.5600   -1.8043 H       1  UNL1        0.0000
      8 H           1.2100   17.1024   -0.1956 H       1  UNL1        0.0000
      9 C           4.0126   16.0233   -1.6384 C.3     1  UNL1        0.0000
     10 H           4.1150   17.0166   -1.2150 H       1  UNL1        0.0000
     11 H           3.8601   16.1383   -2.7064 H       1  UNL1        0.0000
     12 H           4.9569   15.5050   -1.4909 H       1  UNL1        0.0000
     13 C           2.1395   13.5645   -1.9292 C.3     1  UNL1        0.0000
     14 H           3.0120   12.9275   -2.0846 H       1  UNL1        0.0000
     15 H           1.7854   13.8793   -2.9061 H       1  UNL1        0.0000
     16 H           1.3556   12.9581   -1.4839 H       1  UNL1        0.0000
@<TRIPOS>BOND
     1    15    13    1
     2    11     9    1
     3    14    13    1
     4    13    16    1
     5    13     1    1
     6     7     5    1
     7     9    12    1
     8     9    10    1
     9     9     1    1
    10     1     5    1
    11     1     2    1
    12     5     6    1
    13     5     8    1
    14     2     4    1
    15     2     3    1
