@<TRIPOS>MOLECULE
2
 16 15 0 0 0
SMALL
GASTEIGER

@<TRIPOS>ATOM
      1 SI          7.9115   12.9344    0.1872 Si      1  UNL1        0.0000
      2 C           6.3121   12.5741   -0.7373 C.3     1  UNL1        0.0000
      3 H           6.4142   11.6342   -1.2908 H       1  UNL1        0.0000
      4 H           6.1430   13.3510   -1.4924 H       1  UNL1        0.0000
      5 C           7.6566   14.5434    1.2044 C.3     1  UNL1        0.0000
      6 H           7.6007   15.4047    0.5455 H       1  UNL1        0.0000
      7 H           8.4769   14.7191    1.8939 H       1  UNL1        0.0000
      8 H           6.7307   14.5123    1.7803 H       1  UNL1        0.0000
      9 C           8.2464   11.4665    1.3780 C.3     1  UNL1        0.0000
     10 H           7.3185   11.0798    1.7990 H       1  UNL1        0.0000
     11 H           8.8929   11.7505    2.2023 H       1  UNL1        0.0000
     12 H           8.7362   10.6513    0.8548 H       1  UNL1        0.0000
     13 C           9.4926   13.1797   -0.8666 C.3     1  UNL1        0.0000
     14 H           9.7008   12.3010   -1.4688 H       1  UNL1        0.0000
     15 H          10.3651   13.3672   -0.2480 H       1  UNL1        0.0000
     16 H           9.3841   14.0207   -1.5440 H       1  UNL1        0.0000
@<TRIPOS>BOND
     1    16    13    1
     2     4     2    1
     3    14    13    1
     4     3     2    1
     5    13    15    1
     6    13     1    1
     7     2     1    1
     8     1     5    1
     9     1     9    1
    10     6     5    1
    11    12     9    1
    12     5     8    1
    13     5     7    1
    14     9    10    1
    15     9    11    1
