@<TRIPOS>MOLECULE
1
 16 16 0 0 0
SMALL
GASTEIGER

@<TRIPOS>ATOM
      1 C          24.8152   27.5662   26.4299 C.3     1  UNL1       -0.0169
      2 C          24.9310   28.8088   27.2796 C.3     1  UNL1       -0.0463
      3 H          24.2369   29.5792   26.9175 H       1  UNL1        0.0271
      4 H          24.6749   28.5833   28.3184 H       1  UNL1        0.0271
      5 C          26.3496   29.3964   27.2153 C.3     1  UNL1       -0.0525
      6 H          26.3993   30.2995   27.8279 H       1  UNL1        0.0265
      7 H          27.0572   28.6697   27.6195 H       1  UNL1        0.0265
      8 C          26.7274   29.7153   25.7747 C.3     1  UNL1       -0.0530
      9 H          27.7464   30.1064   25.7318 H       1  UNL1        0.0265
     10 H          26.0567   30.4819   25.3800 H       1  UNL1        0.0265
     11 C          26.6135   28.4532   24.9302 C.3     1  UNL1       -0.0525
     12 H          26.8700   28.6686   23.8905 H       1  UNL1        0.0265
     13 H          27.3130   27.7033   25.3076 H       1  UNL1        0.0265
     14 C          25.1863   27.8882   25.0037 C.3     1  UNL1       -0.0463
     15 H          25.1178   26.9930   24.3815 H       1  UNL1        0.0271
     16 H          24.5020   28.6433   24.5955 H       1  UNL1        0.0271
@<TRIPOS>BOND
     1    12    11    1
     2    15    14    1
     3    16    14    1
     4    11    14    1
     5    11    13    1
     6    11     8    1
     7    14     1    1
     8    10     8    1
     9     9     8    1
    10     8     5    1
    11     1     2    1
    12     3     2    1
    13     5     2    1
    14     5     7    1
    15     5     6    1
    16     2     4    1
