@<TRIPOS>MOLECULE
2
 26 26 0 0 0
SMALL
GASTEIGER

@<TRIPOS>ATOM
      1 SI         -2.0963    8.4460    1.1378 Si      1  UNL1        0.0000
      2 C          -0.7349   10.6110    3.1708 C.3     1  UNL1        0.0000
      3 C          -2.0677   10.1609    3.4945 C.ar    1  UNL1        0.0000
      4 C          -2.7341   10.7342    4.6015 C.ar    1  UNL1        0.0000
      5 H          -2.2515   11.5571    5.1171 H       1  UNL1        0.0000
      6 C          -3.9560   10.2811    5.0328 C.ar    1  UNL1        0.0000
      7 H          -4.4322   10.7407    5.8897 H       1  UNL1        0.0000
      8 C          -4.5826    9.2340    4.3659 C.ar    1  UNL1        0.0000
      9 H          -5.5382    8.8589    4.7065 H       1  UNL1        0.0000
     10 C          -3.9780    8.6977    3.2446 C.ar    1  UNL1        0.0000
     11 H          -4.4883    7.9071    2.7120 H       1  UNL1        0.0000
     12 C          -2.7467    9.1423    2.7700 C.ar    1  UNL1        0.0000
     13 C          -0.2804    7.8437    1.0981 C.3     1  UNL1        0.0000
     14 H           0.0237    7.4168    2.0527 H       1  UNL1        0.0000
     15 H           0.4037    8.6532    0.8598 H       1  UNL1        0.0000
     16 H          -0.1443    7.0737    0.3428 H       1  UNL1        0.0000
     17 C          -3.1487    6.9432    0.5860 C.3     1  UNL1        0.0000
     18 H          -3.1304    6.1487    1.3249 H       1  UNL1        0.0000
     19 H          -2.7685    6.5320   -0.3445 H       1  UNL1        0.0000
     20 H          -4.1852    7.2181    0.4184 H       1  UNL1        0.0000
     21 C          -2.2972    9.7620   -0.2487 C.3     1  UNL1        0.0000
     22 H          -1.9157    9.3992   -1.1991 H       1  UNL1        0.0000
     23 H          -1.7649   10.6765   -0.0075 H       1  UNL1        0.0000
     24 H          -3.3418   10.0239   -0.3899 H       1  UNL1        0.0000
     25 H          -0.4837   10.4904    2.1166 H       1  UNL1        0.0000
     26 H          -0.5599   11.6458    3.4867 H       1  UNL1        0.0000
@<TRIPOS>BOND
     1    22    21    1
     2    24    21    1
     3    19    17    1
     4    21    23    1
     5    21     1    1
     6    16    13    1
     7    20    17    1
     8    17     1    1
     9    17    18    1
    10    15    13    1
    11    13     1    1
    12    13    14    1
    13     1    12    1
    14    25     2    1
    15    11    10    1
    16    12    10   ar
    17    12     3   ar
    18     2    26    1
    19     2     3    1
    20    10     8   ar
    21     3     4   ar
    22     8     9    1
    23     8     6   ar
    24     4     6   ar
    25     4     5    1
    26     6     7    1
