@<TRIPOS>MOLECULE
2
 26 26 0 0 0
SMALL
GASTEIGER

@<TRIPOS>ATOM
      1 SI         -0.5935   12.1407    7.8854 Si      1  UNL1        0.0000
      2 C           1.9414   10.6786    6.4331 C.3     1  UNL1        0.0000
      3 H           1.5756   10.4611    7.4370 H       1  UNL1        0.0000
      4 H           3.0170   10.4779    6.3690 H       1  UNL1        0.0000
      5 C           1.6081   12.0081    5.9803 C.ar    1  UNL1        0.0000
      6 C           2.4337   12.6301    5.0160 C.ar    1  UNL1        0.0000
      7 H           3.3405   12.1178    4.7142 H       1  UNL1        0.0000
      8 C           2.1195   13.8458    4.4612 C.ar    1  UNL1        0.0000
      9 H           2.7730   14.2875    3.7196 H       1  UNL1        0.0000
     10 C           0.9632   14.5103    4.8551 C.ar    1  UNL1        0.0000
     11 H           0.6981   15.4612    4.4132 H       1  UNL1        0.0000
     12 C           0.1718   13.9497    5.8399 C.ar    1  UNL1        0.0000
     13 H          -0.7070   14.4896    6.1646 H       1  UNL1        0.0000
     14 C           0.4679   12.7264    6.4356 C.ar    1  UNL1        0.0000
     15 C           0.3794   12.3743    9.5266 C.3     1  UNL1        0.0000
     16 H           1.3134   11.8217    9.5149 H       1  UNL1        0.0000
     17 H          -0.1960   12.0316   10.3822 H       1  UNL1        0.0000
     18 H           0.6244   13.4196    9.6900 H       1  UNL1        0.0000
     19 C          -1.2222   10.3334    7.8457 C.3     1  UNL1        0.0000
     20 H          -1.3881    9.9860    6.8269 H       1  UNL1        0.0000
     21 H          -2.1662   10.2391    8.3763 H       1  UNL1        0.0000
     22 H          -0.5171    9.6562    8.3195 H       1  UNL1        0.0000
     23 C          -2.1614   13.2298    8.0478 C.3     1  UNL1        0.0000
     24 H          -2.7813   12.8868    8.8708 H       1  UNL1        0.0000
     25 H          -2.7668   13.1968    7.1479 H       1  UNL1        0.0000
     26 H          -1.9109   14.2678    8.2424 H       1  UNL1        0.0000
@<TRIPOS>BOND
     1     9     8    1
     2    11    10    1
     3     8    10   ar
     4     8     6   ar
     5     7     6    1
     6    10    12   ar
     7     6     5   ar
     8    12    13    1
     9    12    14   ar
    10     5     2    1
    11     5    14   ar
    12     4     2    1
    13     2     3    1
    14    14     1    1
    15    20    19    1
    16    25    23    1
    17    19     1    1
    18    19    22    1
    19    19    21    1
    20     1    23    1
    21     1    15    1
    22    23    26    1
    23    23    24    1
    24    16    15    1
    25    15    18    1
    26    15    17    1
