@<TRIPOS>MOLECULE
2
 26 26 0 0 0
SMALL
GASTEIGER

@<TRIPOS>ATOM
      1 SI          4.4871   10.4080    2.1732 Si      1  UNL1        0.0000
      2 C           2.7025    7.9274    3.3273 C.3     1  UNL1        0.0000
      3 H           2.4777    6.8555    3.3702 H       1  UNL1        0.0000
      4 H           2.7183    8.2688    2.2918 H       1  UNL1        0.0000
      5 C           3.9039    8.2605    4.0550 C.ar    1  UNL1        0.0000
      6 C           4.2851    7.4554    5.1526 C.ar    1  UNL1        0.0000
      7 H           3.7049    6.5621    5.3554 H       1  UNL1        0.0000
      8 C           5.3533    7.7725    5.9543 C.ar    1  UNL1        0.0000
      9 H           5.6104    7.1350    6.7908 H       1  UNL1        0.0000
     10 C           6.1064    8.9109    5.6887 C.ar    1  UNL1        0.0000
     11 H           6.9408    9.1784    6.3228 H       1  UNL1        0.0000
     12 C           5.7890    9.6808    4.5855 C.ar    1  UNL1        0.0000
     13 H           6.4010   10.5450    4.3665 H       1  UNL1        0.0000
     14 C           4.7225    9.3808    3.7420 C.ar    1  UNL1        0.0000
     15 C           2.7252   11.0558    1.7996 C.3     1  UNL1        0.0000
     16 H           2.1600   11.2381    2.7127 H       1  UNL1        0.0000
     17 H           2.1628   10.3516    1.1927 H       1  UNL1        0.0000
     18 H           2.7643   11.9940    1.2519 H       1  UNL1        0.0000
     19 C           5.6101   11.9596    2.2157 C.3     1  UNL1        0.0000
     20 H           5.3862   12.5925    3.0682 H       1  UNL1        0.0000
     21 H           5.4698   12.5572    1.3197 H       1  UNL1        0.0000
     22 H           6.6612   11.6936    2.2655 H       1  UNL1        0.0000
     23 C           5.0598    9.3883    0.6477 C.3     1  UNL1        0.0000
     24 H           6.1126    9.1322    0.7218 H       1  UNL1        0.0000
     25 H           4.9181    9.9418   -0.2764 H       1  UNL1        0.0000
     26 H           4.5065    8.4584    0.5630 H       1  UNL1        0.0000
@<TRIPOS>BOND
     1    25    23    1
     2    26    23    1
     3    23    24    1
     4    23     1    1
     5    17    15    1
     6    18    15    1
     7    21    19    1
     8    15     1    1
     9    15    16    1
    10     1    19    1
    11     1    14    1
    12    19    22    1
    13    19    20    1
    14     4     2    1
    15     2     3    1
    16     2     5    1
    17    14     5   ar
    18    14    12   ar
    19     5     6   ar
    20    13    12    1
    21    12    10   ar
    22     6     7    1
    23     6     8   ar
    24    10     8   ar
    25    10    11    1
    26     8     9    1
