@<TRIPOS>MOLECULE
2
 26 26 0 0 0
SMALL
GASTEIGER

@<TRIPOS>ATOM
      1 SI          1.4401    5.4958    7.4668 Si      1  UNL1        0.0000
      2 C          -0.6989    7.2755    5.7554 C.3     1  UNL1        0.0000
      3 H          -0.5965    7.2821    6.8410 H       1  UNL1        0.0000
      4 H          -1.7303    7.5121    5.4698 H       1  UNL1        0.0000
      5 C          -0.2326    6.0528    5.1461 C.ar    1  UNL1        0.0000
      6 C          -0.7838    5.6509    3.9080 C.ar    1  UNL1        0.0000
      7 H          -1.6034    6.2332    3.5018 H       1  UNL1        0.0000
      8 C          -0.3135    4.5605    3.2193 C.ar    1  UNL1        0.0000
      9 H          -0.7564    4.2877    2.2697 H       1  UNL1        0.0000
     10 C           0.7297    3.8055    3.7439 C.ar    1  UNL1        0.0000
     11 H           1.1187    2.9541    3.2021 H       1  UNL1        0.0000
     12 C           1.2437    4.1434    4.9817 C.ar    1  UNL1        0.0000
     13 H           2.0312    3.5303    5.3978 H       1  UNL1        0.0000
     14 C           0.7804    5.2324    5.7155 C.ar    1  UNL1        0.0000
     15 C           2.9456    4.3563    7.7913 C.3     1  UNL1        0.0000
     16 H           2.6810    3.3072    7.7058 H       1  UNL1        0.0000
     17 H           3.3330    4.5115    8.7940 H       1  UNL1        0.0000
     18 H           3.7544    4.5533    7.0953 H       1  UNL1        0.0000
     19 C           2.0159    7.2589    7.9393 C.3     1  UNL1        0.0000
     20 H           2.7863    7.2225    8.7054 H       1  UNL1        0.0000
     21 H           1.1966    7.8530    8.3343 H       1  UNL1        0.0000
     22 H           2.4342    7.7900    7.0856 H       1  UNL1        0.0000
     23 C           0.1009    4.9702    8.7416 C.3     1  UNL1        0.0000
     24 H          -0.8142    5.5390    8.6116 H       1  UNL1        0.0000
     25 H           0.4420    5.1228    9.7619 H       1  UNL1        0.0000
     26 H          -0.1529    3.9201    8.6312 H       1  UNL1        0.0000
@<TRIPOS>BOND
     1     9     8    1
     2    11    10    1
     3     8    10   ar
     4     8     6   ar
     5     7     6    1
     6    10    12   ar
     7     6     5   ar
     8    12    13    1
     9    12    14   ar
    10     5    14   ar
    11     5     2    1
    12     4     2    1
    13    14     1    1
    14     2     3    1
    15    22    19    1
    16    18    15    1
    17     1    15    1
    18     1    19    1
    19     1    23    1
    20    16    15    1
    21    15    17    1
    22    19    21    1
    23    19    20    1
    24    24    23    1
    25    26    23    1
    26    23    25    1
