@<TRIPOS>MOLECULE
2
 16 15 0 0 0
SMALL
GASTEIGER

@<TRIPOS>ATOM
      1 SI          3.7269   -1.1784    6.8226 Si      1  UNL1        0.0000
      2 C           3.6086    0.7108    6.9330 C.3     1  UNL1        0.0000
      3 H           4.6154    1.0719    7.1404 H       1  UNL1        0.0000
      4 H           2.9917    0.9547    7.7977 H       1  UNL1        0.0000
      5 C           2.0911   -2.1145    6.5102 C.3     1  UNL1        0.0000
      6 H           1.2788   -1.7480    7.1283 H       1  UNL1        0.0000
      7 H           2.2235   -3.1653    6.7505 H       1  UNL1        0.0000
      8 H           1.7777   -2.0587    5.4737 H       1  UNL1        0.0000
      9 C           4.3519   -1.7224    8.5498 C.3     1  UNL1        0.0000
     10 H           3.6334   -1.4837    9.3276 H       1  UNL1        0.0000
     11 H           5.2884   -1.2404    8.8111 H       1  UNL1        0.0000
     12 H           4.5182   -2.7943    8.5802 H       1  UNL1        0.0000
     13 C           4.9906   -1.7855    5.5268 C.3     1  UNL1        0.0000
     14 H           5.1099   -2.8620    5.6029 H       1  UNL1        0.0000
     15 H           5.9703   -1.3450    5.6773 H       1  UNL1        0.0000
     16 H           4.6789   -1.5667    4.5114 H       1  UNL1        0.0000
@<TRIPOS>BOND
     1    16    13    1
     2     8     5    1
     3    13    14    1
     4    13    15    1
     5    13     1    1
     6     5     7    1
     7     5     1    1
     8     5     6    1
     9     1     2    1
    10     1     9    1
    11     2     3    1
    12     2     4    1
    13     9    12    1
    14     9    11    1
    15     9    10    1
