@<TRIPOS>MOLECULE
2
 14 13 0 0 0
SMALL
GASTEIGER

@<TRIPOS>ATOM
      1 SI          7.9771   13.4207   18.4411 Si      1  UNL1        0.0000
      2 C           8.0216   11.5486   18.2586 C.3     1  UNL1        0.0000
      3 C           9.7242   14.0946   18.0546 C.3     1  UNL1        0.0000
      4 H          10.1639   13.5943   17.1970 H       1  UNL1        0.0000
      5 H          10.3966   13.9789   18.8970 H       1  UNL1        0.0000
      6 H           9.6670   15.1541   17.8250 H       1  UNL1        0.0000
      7 C           7.4287   13.9076   20.1981 C.3     1  UNL1        0.0000
      8 H           8.0169   13.4051   20.9592 H       1  UNL1        0.0000
      9 H           6.3862   13.6624   20.3722 H       1  UNL1        0.0000
     10 H           7.5430   14.9771   20.3457 H       1  UNL1        0.0000
     11 C           6.7858   14.1367   17.1276 C.3     1  UNL1        0.0000
     12 H           7.1205   13.8958   16.1232 H       1  UNL1        0.0000
     13 H           6.7479   15.2183   17.2150 H       1  UNL1        0.0000
     14 H           5.7743   13.7644   17.2431 H       1  UNL1        0.0000
@<TRIPOS>BOND
     1    12    11    1
     2    11    13    1
     3    11    14    1
     4    11     1    1
     5     4     3    1
     6     6     3    1
     7     3     1    1
     8     3     5    1
     9     2     1    1
    10     1     7    1
    11     7    10    1
    12     7     9    1
    13     7     8    1
