@<TRIPOS>MOLECULE
2
 16 15 0 0 0
SMALL
GASTEIGER

@<TRIPOS>ATOM
      1 SI          6.8418    0.6125   16.6173 Si      1  UNL1        0.0000
      2 C           5.8165    1.6059   17.8203 C.3     1  UNL1        0.0000
      3 C           7.6276    1.8144   15.3492 C.3     1  UNL1        0.0000
      4 C           5.7687   -0.6332   15.6136 C.3     1  UNL1        0.0000
      5 C           8.2822   -0.4461   17.3482 C.3     1  UNL1        0.0000
      6 H           6.4435    2.3650   18.2984 H       1  UNL1        0.0000
      7 H           5.3723    1.0113   18.6302 H       1  UNL1        0.0000
      8 H           6.8306    2.3786   14.8706 H       1  UNL1        0.0000
      9 H           8.3052    2.5184   15.8215 H       1  UNL1        0.0000
     10 H           8.1874    1.2923   14.5784 H       1  UNL1        0.0000
     11 H           5.4754   -1.5067   16.1904 H       1  UNL1        0.0000
     12 H           6.3086   -0.9962   14.7440 H       1  UNL1        0.0000
     13 H           4.8735   -0.1251   15.2612 H       1  UNL1        0.0000
     14 H           8.9985    0.1823   17.8673 H       1  UNL1        0.0000
     15 H           7.9137   -1.1746   18.0640 H       1  UNL1        0.0000
     16 H           8.8222   -0.9897   16.5794 H       1  UNL1        0.0000
@<TRIPOS>BOND
     1    10     3    1
     2    12     4    1
     3     8     3    1
     4    13     4    1
     5     3     9    1
     6     3     1    1
     7     4    11    1
     8     4     1    1
     9    16     5    1
    10     1     5    1
    11     1     2    1
    12     5    14    1
    13     5    15    1
    14     2     6    1
    15     2     7    1
