@<TRIPOS>MOLECULE
2
 16 15 0 0 0
SMALL
GASTEIGER

@<TRIPOS>ATOM
      1 SI          6.1009    5.3884   17.8348 Si      1  UNL1        0.0000
      2 C           5.1870    4.7345   16.3342 C.3     1  UNL1        0.0000
      3 C           6.0056    7.3103   18.0236 C.3     1  UNL1        0.0000
      4 C           7.9791    4.9907   17.7570 C.3     1  UNL1        0.0000
      5 C           5.4324    4.6834   19.4992 C.3     1  UNL1        0.0000
      6 H           4.4222    5.4556   16.0065 H       1  UNL1        0.0000
      7 H           5.8895    4.6175   15.4969 H       1  UNL1        0.0000
      8 H           4.9787    7.6527   18.1205 H       1  UNL1        0.0000
      9 H           6.5446    7.6523   18.9016 H       1  UNL1        0.0000
     10 H           6.4355    7.8130   17.1625 H       1  UNL1        0.0000
     11 H           8.1498    3.9215   17.6791 H       1  UNL1        0.0000
     12 H           8.4952    5.3456   18.6438 H       1  UNL1        0.0000
     13 H           8.4461    5.4622   16.8983 H       1  UNL1        0.0000
     14 H           4.6625    3.9350   19.3108 H       1  UNL1        0.0000
     15 H           6.2216    4.2128   20.0788 H       1  UNL1        0.0000
     16 H           5.0017    5.4618   20.1231 H       1  UNL1        0.0000
@<TRIPOS>BOND
     1     7     2    1
     2     6     2    1
     3     2     1    1
     4    13     4    1
     5    10     3    1
     6    11     4    1
     7     4     1    1
     8     4    12    1
     9     1     3    1
    10     1     5    1
    11     3     8    1
    12     3     9    1
    13    14     5    1
    14     5    15    1
    15     5    16    1
