@<TRIPOS>MOLECULE
2
 16 15 0 0 0
SMALL
GASTEIGER

@<TRIPOS>ATOM
      1 SI          0.0695    6.3184    1.7704 Si      1  UNL1        0.0000
      2 C          -0.6380    5.1669    3.0852 C.3     1  UNL1        0.0000
      3 C           1.9098    5.9842    1.3669 C.3     1  UNL1        0.0000
      4 C          -0.8902    6.1106    0.1215 C.3     1  UNL1        0.0000
      5 C          -0.1105    8.1435    2.3018 C.3     1  UNL1        0.0000
      6 H          -0.3396    4.1291    2.8614 H       1  UNL1        0.0000
      7 H          -1.7336    5.1952    2.9868 H       1  UNL1        0.0000
      8 H           2.5529    6.1481    2.2243 H       1  UNL1        0.0000
      9 H           2.2517    6.6412    0.5724 H       1  UNL1        0.0000
     10 H           2.0635    4.9633    1.0311 H       1  UNL1        0.0000
     11 H          -0.8106    5.0970   -0.2602 H       1  UNL1        0.0000
     12 H          -0.5121    6.7800   -0.6456 H       1  UNL1        0.0000
     13 H          -1.9463    6.3276    0.2521 H       1  UNL1        0.0000
     14 H          -1.1523    8.4153    2.4375 H       1  UNL1        0.0000
     15 H           0.3064    8.8132    1.5556 H       1  UNL1        0.0000
     16 H           0.3946    8.3373    3.2413 H       1  UNL1        0.0000
@<TRIPOS>BOND
     1    12     4    1
     2    11     4    1
     3     4    13    1
     4     4     1    1
     5     9     3    1
     6    10     3    1
     7     3     1    1
     8     3     8    1
     9    15     5    1
    10     1     5    1
    11     1     2    1
    12     5    14    1
    13     5    16    1
    14     6     2    1
    15     7     2    1
