@<TRIPOS>MOLECULE
2
 15 14 0 0 0
SMALL
GASTEIGER

@<TRIPOS>ATOM
      1 SI         -2.3152    6.6697    3.6536 Si      1  UNL1        0.0000
      2 C           0.1411    6.7674    5.4900 C.1     1  UNL1        0.0000
      3 C          -0.8182    6.6932    4.7390 C.1     1  UNL1        0.0000
      4 C          -2.5119    4.9725    2.7972 C.3     1  UNL1        0.0000
      5 H          -1.6546    4.7442    2.1705 H       1  UNL1        0.0000
      6 H          -3.3959    4.9483    2.1658 H       1  UNL1        0.0000
      7 H          -2.6066    4.1728    3.5261 H       1  UNL1        0.0000
      8 C          -2.1643    8.0291    2.3167 C.3     1  UNL1        0.0000
      9 H          -2.0898    9.0154    2.7655 H       1  UNL1        0.0000
     10 H          -3.0267    8.0325    1.6557 H       1  UNL1        0.0000
     11 H          -1.2808    7.8812    1.7024 H       1  UNL1        0.0000
     12 C          -3.8467    7.0203    4.7416 C.3     1  UNL1        0.0000
     13 H          -3.9866    6.2382    5.4821 H       1  UNL1        0.0000
     14 H          -4.7557    7.0809    4.1495 H       1  UNL1        0.0000
     15 H          -3.7375    7.9569    5.2809 H       1  UNL1        0.0000
@<TRIPOS>BOND
     1    10     8    1
     2    11     8    1
     3     6     4    1
     4     5     4    1
     5     8     9    1
     6     8     1    1
     7     4     7    1
     8     4     1    1
     9     1     3    1
    10     1    12    1
    11    14    12    1
    12     3     2    3
    13    12    15    1
    14    12    13    1
