@<TRIPOS>MOLECULE
1
 14 14 0 0 0
SMALL
GASTEIGER

@<TRIPOS>ATOM
      1 C           2.2486   -0.9241    4.7927 C.3     1  UNL1       -0.0237
      2 H           2.7632   -1.7244    5.3241 H       1  UNL1        0.0316
      3 H           1.2148   -0.8737    5.1439 H       1  UNL1        0.0316
      4 C           2.2775   -1.1834    3.3489 C.ar    1  UNL1       -0.0470
      5 C           1.1966   -0.8495    2.5293 C.ar    1  UNL1       -0.0586
      6 H           0.3094   -0.4291    2.9807 H       1  UNL1        0.0620
      7 C           1.2469   -1.0475    1.1628 C.ar    1  UNL1       -0.0615
      8 H           0.3973   -0.7838    0.5473 H       1  UNL1        0.0618
      9 C           2.3750   -1.5950    0.5755 C.ar    1  UNL1       -0.0617
     10 H           2.4151   -1.7475   -0.4932 H       1  UNL1        0.0618
     11 C           3.4463   -1.9597    1.3759 C.ar    1  UNL1       -0.0615
     12 H           4.3255   -2.4017    0.9274 H       1  UNL1        0.0618
     13 C           3.3954   -1.7649    2.7410 C.ar    1  UNL1       -0.0586
     14 H           4.2385   -2.0474    3.3552 H       1  UNL1        0.0620
@<TRIPOS>BOND
     1    10     9    1
     2     8     7    1
     3     9     7   ar
     4     9    11   ar
     5    12    11    1
     6     7     5   ar
     7    11    13   ar
     8     5     6    1
     9     5     4   ar
    10    13     4   ar
    11    13    14    1
    12     4     1    1
    13     1     3    1
    14     1     2    1
