@<TRIPOS>MOLECULE
1
 14 14 0 0 0
SMALL
GASTEIGER

@<TRIPOS>ATOM
      1 C           2.9332    0.0869    7.5796 C.3     1  UNL1       -0.0237
      2 H           2.6117    0.8724    8.2628 H       1  UNL1        0.0316
      3 H           2.1256   -0.6471    7.5237 H       1  UNL1        0.0316
      4 C           4.1345   -0.5540    8.1526 C.ar    1  UNL1       -0.0470
      5 C           5.1985    0.2247    8.6195 C.ar    1  UNL1       -0.0586
      6 H           5.1188    1.3028    8.5701 H       1  UNL1        0.0620
      7 C           6.3381   -0.3610    9.1313 C.ar    1  UNL1       -0.0615
      8 H           7.1519    0.2600    9.4791 H       1  UNL1        0.0618
      9 C           6.4442   -1.7416    9.2064 C.ar    1  UNL1       -0.0617
     10 H           7.3358   -2.1989    9.6100 H       1  UNL1        0.0618
     11 C           5.3924   -2.5275    8.7696 C.ar    1  UNL1       -0.0615
     12 H           5.4606   -3.6044    8.8355 H       1  UNL1        0.0618
     13 C           4.2531   -1.9409    8.2501 C.ar    1  UNL1       -0.0586
     14 H           3.4357   -2.5656    7.9160 H       1  UNL1        0.0620
@<TRIPOS>BOND
     1     3     1    1
     2     1     4    1
     3     1     2    1
     4    14    13    1
     5     4    13   ar
     6     4     5   ar
     7    13    11   ar
     8     6     5    1
     9     5     7   ar
    10    11    12    1
    11    11     9   ar
    12     7     9   ar
    13     7     8    1
    14     9    10    1
