@<TRIPOS>MOLECULE
1
 14 14 0 0 0
SMALL
GASTEIGER

@<TRIPOS>ATOM
      1 C           2.5067    3.0003    6.5402 C.3     1  UNL1       -0.0237
      2 H           2.8556    3.7936    5.8797 H       1  UNL1        0.0316
      3 H           1.4181    2.9908    6.5029 H       1  UNL1        0.0316
      4 C           2.9396    3.2915    7.9180 C.ar    1  UNL1       -0.0470
      5 C           2.0799    3.1048    9.0053 C.ar    1  UNL1       -0.0586
      6 H           1.0693    2.7631    8.8257 H       1  UNL1        0.0620
      7 C           2.4967    3.3552   10.2991 C.ar    1  UNL1       -0.0615
      8 H           1.8140    3.2003   11.1225 H       1  UNL1        0.0618
      9 C           3.7820    3.8086   10.5445 C.ar    1  UNL1       -0.0617
     10 H           4.1071    4.0061   11.5552 H       1  UNL1        0.0618
     11 C           4.6442    4.0130    9.4789 C.ar    1  UNL1       -0.0615
     12 H           5.6474    4.3737    9.6596 H       1  UNL1        0.0618
     13 C           4.2287    3.7586    8.1865 C.ar    1  UNL1       -0.0586
     14 H           4.9078    3.9132    7.3612 H       1  UNL1        0.0620
@<TRIPOS>BOND
     1     2     1    1
     2     3     1    1
     3     1     4    1
     4    14    13    1
     5     4    13   ar
     6     4     5   ar
     7    13    11   ar
     8     6     5    1
     9     5     7   ar
    10    11    12    1
    11    11     9   ar
    12     7     9   ar
    13     7     8    1
    14     9    10    1
