@<TRIPOS>MOLECULE
1
 14 14 0 0 0
SMALL
GASTEIGER

@<TRIPOS>ATOM
      1 C          -2.0695    3.5648   13.5491 C.3     1  UNL1       -0.0237
      2 H          -1.7697    4.5550   13.8929 H       1  UNL1        0.0316
      3 H          -2.2920    3.6368   12.4835 H       1  UNL1        0.0316
      4 C          -3.2692    3.1376   14.2816 C.ar    1  UNL1       -0.0470
      5 C          -4.2760    2.4035   13.6515 C.ar    1  UNL1       -0.0586
      6 H          -4.1803    2.1929   12.5964 H       1  UNL1        0.0620
      7 C          -5.3768    1.9518   14.3531 C.ar    1  UNL1       -0.0615
      8 H          -6.1433    1.3809   13.8466 H       1  UNL1        0.0618
      9 C          -5.5136    2.2379   15.7011 C.ar    1  UNL1       -0.0617
     10 H          -6.3734    1.8827   16.2501 H       1  UNL1        0.0618
     11 C          -4.5455    3.0012   16.3334 C.ar    1  UNL1       -0.0615
     12 H          -4.6587    3.2511   17.3795 H       1  UNL1        0.0618
     13 C          -3.4433    3.4491   15.6337 C.ar    1  UNL1       -0.0586
     14 H          -2.6970    4.0479   16.1377 H       1  UNL1        0.0620
@<TRIPOS>BOND
     1     3     1    1
     2     6     5    1
     3     1     2    1
     4     1     4    1
     5     5     4   ar
     6     5     7   ar
     7     8     7    1
     8     4    13   ar
     9     7     9   ar
    10    13    14    1
    11    13    11   ar
    12     9    10    1
    13     9    11   ar
    14    11    12    1
