@<TRIPOS>MOLECULE
1
 14 14 0 0 0
SMALL
GASTEIGER

@<TRIPOS>ATOM
      1 C           1.1931    1.0285   12.1147 C.3     1  UNL1       -0.0237
      2 H           0.9927   -0.0192   12.3323 H       1  UNL1        0.0316
      3 H           0.8113    1.2635   11.1222 H       1  UNL1        0.0316
      4 C           2.6332    1.3002   12.2094 C.ar    1  UNL1       -0.0470
      5 C           3.4462    0.5913   13.1013 C.ar    1  UNL1       -0.0586
      6 H           3.0218   -0.2193   13.6741 H       1  UNL1        0.0620
      7 C           4.7850    0.8927   13.2513 C.ar    1  UNL1       -0.0615
      8 H           5.3822    0.3327   13.9576 H       1  UNL1        0.0618
      9 C           5.3663    1.8983   12.4962 C.ar    1  UNL1       -0.0617
     10 H           6.4124    2.1380   12.6169 H       1  UNL1        0.0618
     11 C           4.5957    2.5720   11.5630 C.ar    1  UNL1       -0.0615
     12 H           5.0451    3.3332   10.9411 H       1  UNL1        0.0618
     13 C           3.2549    2.2733   11.4164 C.ar    1  UNL1       -0.0586
     14 H           2.6818    2.7924   10.6616 H       1  UNL1        0.0620
@<TRIPOS>BOND
     1    14    13    1
     2    12    11    1
     3     3     1    1
     4    13    11   ar
     5    13     4   ar
     6    11     9   ar
     7     1     4    1
     8     1     2    1
     9     4     5   ar
    10     9    10    1
    11     9     7   ar
    12     5     7   ar
    13     5     6    1
    14     7     8    1
