@<TRIPOS>MOLECULE
1
 14 14 0 0 0
SMALL
GASTEIGER

@<TRIPOS>ATOM
      1 C           0.8334    4.1050   12.8793 C.3     1  UNL1       -0.0237
      2 H           0.9995    4.7887   13.7124 H       1  UNL1        0.0316
      3 H           1.8181    3.8082   12.5171 H       1  UNL1        0.0316
      4 C           0.1265    4.8438   11.8094 C.ar    1  UNL1       -0.0470
      5 C           0.0613    4.3557   10.5020 C.ar    1  UNL1       -0.0586
      6 H           0.5567    3.4268   10.2608 H       1  UNL1        0.0620
      7 C          -0.6217    5.0366    9.5131 C.ar    1  UNL1       -0.0615
      8 H          -0.6585    4.6330    8.5110 H       1  UNL1        0.0618
      9 C          -1.2575    6.2337    9.7989 C.ar    1  UNL1       -0.0617
     10 H          -1.7923    6.7661    9.0264 H       1  UNL1        0.0618
     11 C          -1.1896    6.7454   11.0836 C.ar    1  UNL1       -0.0615
     12 H          -1.6699    7.6854   11.3155 H       1  UNL1        0.0618
     13 C          -0.5038    6.0629   12.0703 C.ar    1  UNL1       -0.0586
     14 H          -0.4469    6.4847   13.0647 H       1  UNL1        0.0620
@<TRIPOS>BOND
     1     8     7    1
     2    10     9    1
     3     7     9   ar
     4     7     5   ar
     5     9    11   ar
     6     6     5    1
     7     5     4   ar
     8    11    12    1
     9    11    13   ar
    10     4    13   ar
    11     4     1    1
    12    13    14    1
    13     3     1    1
    14     1     2    1
