@<TRIPOS>MOLECULE
1
 13 13 0 0 0
SMALL
GASTEIGER

@<TRIPOS>ATOM
      1 C          14.4144   12.7676    8.3724 C.1     1  UNL1       -0.0092
      2 C          14.9654   12.0945    9.2224 C.1     1  UNL1       -0.0525
      3 C          15.6294   11.3200   10.2099 C.ar    1  UNL1        0.0259
      4 C          17.0151   11.1537   10.1567 C.ar    1  UNL1       -0.0463
      5 H          17.5733   11.6154    9.3537 H       1  UNL1        0.0630
      6 C          17.6634   10.4058   11.1200 C.ar    1  UNL1       -0.0606
      7 H          18.7360   10.2809   11.0718 H       1  UNL1        0.0618
      8 C          16.9435    9.8159   12.1470 C.ar    1  UNL1       -0.0617
      9 H          17.4536    9.2311   12.8985 H       1  UNL1        0.0618
     10 C          15.5685    9.9800   12.2080 C.ar    1  UNL1       -0.0606
     11 H          15.0067    9.5228   13.0101 H       1  UNL1        0.0618
     12 C          14.9108   10.7261   11.2495 C.ar    1  UNL1       -0.0463
     13 H          13.8400   10.8595   11.2940 H       1  UNL1        0.0630
@<TRIPOS>BOND
     1     1     2    3
     2     2     3    1
     3     5     4    1
     4     4     3   ar
     5     4     6   ar
     6     3    12   ar
     7     7     6    1
     8     6     8   ar
     9    12    13    1
    10    12    10   ar
    11     8    10   ar
    12     8     9    1
    13    10    11    1
