@<TRIPOS>MOLECULE
1
 13 13 0 0 0
SMALL
GASTEIGER

@<TRIPOS>ATOM
      1 C          12.6897   15.1172    8.3738 C.1     1  UNL1       -0.0092
      2 C          12.1367   15.7936    9.2200 C.1     1  UNL1       -0.0525
      3 C          11.4726   16.5644   10.2102 C.ar    1  UNL1        0.0259
      4 C          10.0869   16.7310   10.1569 C.ar    1  UNL1       -0.0463
      5 H           9.5288   16.2694    9.3538 H       1  UNL1        0.0630
      6 C           9.4386   17.4790   11.1201 C.ar    1  UNL1       -0.0606
      7 H           8.3661   17.6031   11.0724 H       1  UNL1        0.0618
      8 C          10.1584   18.0685   12.1474 C.ar    1  UNL1       -0.0617
      9 H           9.6482   18.6532   12.8988 H       1  UNL1        0.0618
     10 C          11.5334   17.9045   12.2084 C.ar    1  UNL1       -0.0606
     11 H          12.0954   18.3626   13.0098 H       1  UNL1        0.0618
     12 C          12.1912   17.1586   11.2498 C.ar    1  UNL1       -0.0463
     13 H          13.2621   17.0266   11.2934 H       1  UNL1        0.0630
@<TRIPOS>BOND
     1     1     2    3
     2     2     3    1
     3     5     4    1
     4     4     3   ar
     5     4     6   ar
     6     3    12   ar
     7     7     6    1
     8     6     8   ar
     9    12    13    1
    10    12    10   ar
    11     8    10   ar
    12     8     9    1
    13    10    11    1
