@<TRIPOS>MOLECULE
1
 13 13 0 0 0
SMALL
GASTEIGER

@<TRIPOS>ATOM
      1 C           5.4370    7.9775    6.5747 C.1     1  UNL1       -0.0092
      2 C           5.2984    7.7766    5.3845 C.1     1  UNL1       -0.0525
      3 C           5.1175    7.4894    4.0069 C.ar    1  UNL1        0.0259
      4 C           4.5821    6.2591    3.6188 C.ar    1  UNL1       -0.0463
      5 C           4.4072    5.9742    2.2789 C.ar    1  UNL1       -0.0606
      6 C           4.7594    6.9053    1.3138 C.ar    1  UNL1       -0.0617
      7 C           5.2904    8.1278    1.6933 C.ar    1  UNL1       -0.0606
      8 C           5.4714    8.4223    3.0309 C.ar    1  UNL1       -0.0463
      9 H           4.3113    5.5408    4.3788 H       1  UNL1        0.0630
     10 H           3.9936    5.0211    1.9824 H       1  UNL1        0.0618
     11 H           4.6205    6.6786    0.2670 H       1  UNL1        0.0618
     12 H           5.5649    8.8537    0.9413 H       1  UNL1        0.0618
     13 H           5.8857    9.3741    3.3315 H       1  UNL1        0.0630
@<TRIPOS>BOND
     1    11     6    1
     2    12     7    1
     3     6     7   ar
     4     6     5   ar
     5     7     8   ar
     6    10     5    1
     7     5     4   ar
     8     8    13    1
     9     8     3   ar
    10     4     3   ar
    11     4     9    1
    12     3     2    1
    13     2     1    3
