@<TRIPOS>MOLECULE
1
 15 14 0 0 0
SMALL
GASTEIGER

@<TRIPOS>ATOM
      1 C           0.6825   -3.0767   19.6452 C.1     1  UNL1        0.1283
      2 N           0.5479   -2.4055   20.5864 N.1     1  UNL1       -0.3828
      3 C           0.3302   -1.5306   21.6725 C.3     1  UNL1        0.1041
      4 C          -1.1343   -1.6737   22.0965 C.3     1  UNL1       -0.0289
      5 H          -1.7972   -1.4090   21.2768 H       1  UNL1        0.0263
      6 H          -1.3345   -1.0145   22.9365 H       1  UNL1        0.0263
      7 H          -1.3481   -2.6957   22.4007 H       1  UNL1        0.0263
      8 C           0.6247   -0.1029   21.2016 C.3     1  UNL1       -0.0289
      9 H           1.6689    0.0021   20.9147 H       1  UNL1        0.0263
     10 H           0.4200    0.5930   22.0105 H       1  UNL1        0.0263
     11 H          -0.0002    0.1554   20.3514 H       1  UNL1        0.0263
     12 C           1.2692   -1.9211   22.8167 C.3     1  UNL1       -0.0289
     13 H           1.0948   -2.9432   23.1376 H       1  UNL1        0.0263
     14 H           1.0933   -1.2639   23.6639 H       1  UNL1        0.0263
     15 H           2.3092   -1.8240   22.5149 H       1  UNL1        0.0263
@<TRIPOS>BOND
     1     1     2    3
     2    11     8    1
     3     2     3    1
     4     9     8    1
     5     8     3    1
     6     8    10    1
     7     5     4    1
     8     3     4    1
     9     3    12    1
    10     4     7    1
    11     4     6    1
    12    15    12    1
    13    12    13    1
    14    12    14    1
