@<TRIPOS>MOLECULE
1
 11 11 0 0 0
SMALL
GASTEIGER

@<TRIPOS>ATOM
      1 C           5.8819    3.8651   11.5390 C.ar    1  UNL1        0.0641
      2 C           7.0461    4.0083   12.2767 C.ar    1  UNL1        0.1720
      3 F           7.7078    2.8103   12.5054 F       1  UNL1       -0.2016
      4 C           7.5503    5.2024   12.7659 C.ar    1  UNL1        0.1970
      5 F           8.6705    5.2550   13.4928 F       1  UNL1       -0.1993
      6 C           6.8434    6.3705   12.4768 C.ar    1  UNL1        0.1991
      7 F           7.2895    7.5493   12.9180 F       1  UNL1       -0.1993
      8 C           5.6752    6.3044   11.7178 C.ar    1  UNL1        0.1970
      9 F           5.0064    7.4256   11.4253 F       1  UNL1       -0.1993
     10 C           5.2305    5.0623   11.2822 C.ar    1  UNL1        0.1720
     11 F           4.0751    4.9800   10.5697 F       1  UNL1       -0.2016
@<TRIPOS>BOND
     1    11    10    1
     2    10     1   ar
     3    10     8   ar
     4     9     8    1
     5     1     2   ar
     6     8     6   ar
     7     2     3    1
     8     2     4   ar
     9     6     4   ar
    10     6     7    1
    11     4     5    1
