@<TRIPOS>MOLECULE
6
 117 119 0 0 0
SMALL
GASTEIGER

@<TRIPOS>ATOM
      1 P           5.3986    9.4096   25.8883 P.3     1  UNL1        0.0000
      2 P           4.3755    8.4430   23.5629 P.3     1  UNL1        0.0000
      3 SI          3.1742   11.3401   24.3809 Si      1  UNL1        0.0000
      4 O           7.2001    7.3140   25.8472 O.2     1  UNL1        0.0000
      5 C           6.2864    8.0241   25.1327 C.2     1  UNL1        0.0000
      6 C           5.6952    7.4108   24.0506 C.2     1  UNL1        0.0000
      7 C           4.3379    9.8558   24.5294 C.3     1  UNL1        0.0000
      8 C           8.2581    8.0062   26.4771 C.3     1  UNL1        0.0000
      9 H           8.5347    7.4264   27.3580 H       1  UNL1        0.0000
     10 H           7.9632    9.0159   26.7767 H       1  UNL1        0.0000
     11 H           9.1235    8.0618   25.8070 H       1  UNL1        0.0000
     12 C           3.7708   12.7874   25.4644 C.3     1  UNL1        0.0000
     13 H           3.8321   12.5058   26.5099 H       1  UNL1        0.0000
     14 H           3.0727   13.6151   25.3863 H       1  UNL1        0.0000
     15 H           4.7491   13.1523   25.1733 H       1  UNL1        0.0000
     16 C           3.1384   11.8488   22.5438 C.3     1  UNL1        0.0000
     17 H           2.5439   12.7473   22.4117 H       1  UNL1        0.0000
     18 H           2.6839   11.0625   21.9486 H       1  UNL1        0.0000
     19 H           4.1247   12.0493   22.1370 H       1  UNL1        0.0000
     20 C           1.3681   10.9657   24.8635 C.3     1  UNL1        0.0000
     21 H           1.2648   10.7132   25.9143 H       1  UNL1        0.0000
     22 H           0.9601   10.1517   24.2732 H       1  UNL1        0.0000
     23 H           0.7541   11.8427   24.6809 H       1  UNL1        0.0000
     24 C           6.2943   10.8768   26.5475 C.ar    1  UNL1        0.0000
     25 C           5.9512   11.1830   27.8945 C.ar    1  UNL1        0.0000
     26 C           6.3038   12.4221   28.3990 C.ar    1  UNL1        0.0000
     27 H           6.0182   12.6873   29.3991 H       1  UNL1        0.0000
     28 C           6.9988   13.3680   27.6596 C.ar    1  UNL1        0.0000
     29 C           7.4123   12.9955   26.3995 C.ar    1  UNL1        0.0000
     30 H           7.9966   13.6938   25.8293 H       1  UNL1        0.0000
     31 C           7.0972   11.7695   25.8109 C.ar    1  UNL1        0.0000
     32 C           5.2061   10.2309   28.8478 C.3     1  UNL1        0.0000
     33 C           5.8645    8.8436   28.8837 C.3     1  UNL1        0.0000
     34 H           6.9038    8.9381   29.1929 H       1  UNL1        0.0000
     35 H           5.8307    8.3280   27.9270 H       1  UNL1        0.0000
     36 H           5.3493    8.2129   29.6051 H       1  UNL1        0.0000
     37 C           3.7197   10.1407   28.4695 C.3     1  UNL1        0.0000
     38 H           3.2584   11.1242   28.5411 H       1  UNL1        0.0000
     39 H           3.2062    9.4687   29.1538 H       1  UNL1        0.0000
     40 H           3.5762    9.7721   27.4562 H       1  UNL1        0.0000
     41 C           5.2401   10.7173   30.3092 C.3     1  UNL1        0.0000
     42 H           6.2592   10.8844   30.6505 H       1  UNL1        0.0000
     43 H           4.8011    9.9476   30.9407 H       1  UNL1        0.0000
     44 H           4.6535   11.6212   30.4554 H       1  UNL1        0.0000
     45 C           7.2820   14.7330   28.2636 C.3     1  UNL1        0.0000
     46 C           5.9446   15.4031   28.6099 C.3     1  UNL1        0.0000
     47 H           6.1182   16.3960   29.0189 H       1  UNL1        0.0000
     48 H           5.3892   14.8265   29.3443 H       1  UNL1        0.0000
     49 H           5.3304   15.4988   27.7168 H       1  UNL1        0.0000
     50 C           8.1239   14.5570   29.5349 C.3     1  UNL1        0.0000
     51 H           8.3550   15.5281   29.9673 H       1  UNL1        0.0000
     52 H           9.0590   14.0526   29.3000 H       1  UNL1        0.0000
     53 H           7.5986   13.9697   30.2829 H       1  UNL1        0.0000
     54 C           8.0445   15.6567   27.3099 C.3     1  UNL1        0.0000
     55 H           8.2003   16.6212   27.7886 H       1  UNL1        0.0000
     56 H           7.4822   15.8252   26.3941 H       1  UNL1        0.0000
     57 H           9.0211   15.2467   27.0624 H       1  UNL1        0.0000
     58 C           7.7422   11.6103   24.4261 C.3     1  UNL1        0.0000
     59 C           9.2636   11.8119   24.5800 C.3     1  UNL1        0.0000
     60 H           9.5322   12.8303   24.8427 H       1  UNL1        0.0000
     61 H           9.7588   11.5737   23.6413 H       1  UNL1        0.0000
     62 H           9.6543   11.1480   25.3489 H       1  UNL1        0.0000
     63 C           7.1642   12.6720   23.4762 C.3     1  UNL1        0.0000
     64 H           6.1063   12.4803   23.3103 H       1  UNL1        0.0000
     65 H           7.6777   12.6253   22.5181 H       1  UNL1        0.0000
     66 H           7.2698   13.6809   23.8646 H       1  UNL1        0.0000
     67 C           7.5713   10.2657   23.7300 C.3     1  UNL1        0.0000
     68 H           6.5230   10.0388   23.5609 H       1  UNL1        0.0000
     69 H           8.0419    9.4643   24.2885 H       1  UNL1        0.0000
     70 H           8.0553   10.3061   22.7552 H       1  UNL1        0.0000
     71 C           2.9132    8.0513   22.5743 C.ar    1  UNL1        0.0000
     72 C           2.8483    8.4272   21.2175 C.ar    1  UNL1        0.0000
     73 C           1.6000    8.4604   20.6047 C.ar    1  UNL1        0.0000
     74 H           1.5475    8.7269   19.5660 H       1  UNL1        0.0000
     75 C           0.4262    8.1829   21.2804 C.ar    1  UNL1        0.0000
     76 C           0.5442    7.7071   22.5759 C.ar    1  UNL1        0.0000
     77 H          -0.3536    7.4035   23.0878 H       1  UNL1        0.0000
     78 C           1.7565    7.5843   23.2419 C.ar    1  UNL1        0.0000
     79 C           4.0346    8.6701   20.2826 C.3     1  UNL1        0.0000
     80 C           5.3474    9.0192   20.9739 C.3     1  UNL1        0.0000
     81 H           5.2516    9.9380   21.5526 H       1  UNL1        0.0000
     82 H           6.1177    9.1758   20.2187 H       1  UNL1        0.0000
     83 H           5.6949    8.1975   21.6055 H       1  UNL1        0.0000
     84 C           4.2373    7.3556   19.5104 C.3     1  UNL1        0.0000
     85 H           4.4966    6.5519   20.1960 H       1  UNL1        0.0000
     86 H           5.0460    7.4662   18.7916 H       1  UNL1        0.0000
     87 H           3.3338    7.0710   18.9764 H       1  UNL1        0.0000
     88 C           3.7466    9.8025   19.2780 C.3     1  UNL1        0.0000
     89 H           3.3520   10.6814   19.7819 H       1  UNL1        0.0000
     90 H           3.0483    9.5013   18.5026 H       1  UNL1        0.0000
     91 H           4.6707   10.0846   18.7788 H       1  UNL1        0.0000
     92 C          -0.9502    8.3360   20.6561 C.3     1  UNL1        0.0000
     93 C          -0.8924    8.8849   19.2280 C.3     1  UNL1        0.0000
     94 H          -1.9040    9.0106   18.8479 H       1  UNL1        0.0000
     95 H          -0.3711    8.1985   18.5648 H       1  UNL1        0.0000
     96 H          -0.4005    9.8547   19.2004 H       1  UNL1        0.0000
     97 C          -1.7679    9.3143   21.5119 C.3     1  UNL1        0.0000
     98 H          -2.7561    9.4535   21.0793 H       1  UNL1        0.0000
     99 H          -1.2706   10.2812   21.5566 H       1  UNL1        0.0000
    100 H          -1.8915    8.9482   22.5274 H       1  UNL1        0.0000
    101 C          -1.6438    6.9672   20.6171 C.3     1  UNL1        0.0000
    102 H          -2.6118    7.0532   20.1285 H       1  UNL1        0.0000
    103 H          -1.8035    6.5722   21.6164 H       1  UNL1        0.0000
    104 H          -1.0381    6.2543   20.0621 H       1  UNL1        0.0000
    105 C           1.6641    6.8218   24.5692 C.3     1  UNL1        0.0000
    106 C           1.0949    5.4296   24.2261 C.3     1  UNL1        0.0000
    107 H           1.7093    4.9492   23.4694 H       1  UNL1        0.0000
    108 H           0.0764    5.4809   23.8532 H       1  UNL1        0.0000
    109 H           1.0944    4.8021   25.1146 H       1  UNL1        0.0000
    110 C           2.9780    6.5743   25.3017 C.3     1  UNL1        0.0000
    111 H           3.7012    6.0713   24.6595 H       1  UNL1        0.0000
    112 H           2.7880    5.9208   26.1528 H       1  UNL1        0.0000
    113 H           3.4061    7.4953   25.7020 H       1  UNL1        0.0000
    114 C           0.7290    7.5262   25.5633 C.3     1  UNL1        0.0000
    115 H          -0.2293    7.7905   25.1260 H       1  UNL1        0.0000
    116 H           1.1970    8.4319   25.9379 H       1  UNL1        0.0000
    117 H           0.5410    6.8671   26.4083 H       1  UNL1        0.0000
@<TRIPOS>BOND
     1    90    88    1
     2    95    93    1
     3    91    88    1
     4    86    84    1
     5    94    93    1
     6    87    84    1
     7    96    93    1
     8    93    92    1
     9    88    89    1
    10    88    79    1
    11    84    85    1
    12    84    79    1
    13    74    73    1
    14   104   101    1
    15   102   101    1
    16    82    80    1
    17    79    80    1
    18    79    72    1
    19    73    72   ar
    20    73    75   ar
    21   101    92    1
    22   101   103    1
    23    92    75    1
    24    92    97    1
    25    80    81    1
    26    80    83    1
    27    98    97    1
    28    72    71   ar
    29    75    76   ar
    30    97    99    1
    31    97   100    1
    32    18    16    1
    33    19    16    1
    34    17    16    1
    35    65    63    1
    36    16     3    1
    37    71    78   ar
    38    71     2    1
    39    76    77    1
    40    76    78   ar
    41    70    67    1
    42    78   105    1
    43    64    63    1
    44   107   106    1
    45    63    66    1
    46    63    58    1
    47    68    67    1
    48     2     6    1
    49     2     7    1
    50    61    59    1
    51    67    69    1
    52    67    58    1
    53   108   106    1
    54     6     5    2
    55   106   105    1
    56   106   109    1
    57    22    20    1
    58     3     7    1
    59     3    20    1
    60     3    12    1
    61    58    59    1
    62    58    31    1
    63     7     1    1
    64   105   110    1
    65   105   114    1
    66    59    60    1
    67    59    62    1
    68   111   110    1
    69    23    20    1
    70    20    21    1
    71   115   114    1
    72     5     4    1
    73     5     1    1
    74    15    12    1
    75   110   113    1
    76   110   112    1
    77    14    12    1
    78    12    13    1
    79   114   116    1
    80   114   117    1
    81    11     8    1
    82    31    29   ar
    83    31    24   ar
    84    30    29    1
    85     4     8    1
    86     1    24    1
    87    56    54    1
    88    29    28   ar
    89     8    10    1
    90     8     9    1
    91    24    25   ar
    92    57    54    1
    93    54    55    1
    94    54    45    1
    95    40    37    1
    96    28    45    1
    97    28    26   ar
    98    49    46    1
    99    25    26   ar
   100    25    32    1
   101    35    33    1
   102    45    46    1
   103    45    50    1
   104    26    27    1
   105    37    38    1
   106    37    32    1
   107    37    39    1
   108    46    47    1
   109    46    48    1
   110    32    33    1
   111    32    41    1
   112    33    34    1
   113    33    36    1
   114    52    50    1
   115    50    51    1
   116    50    53    1
   117    41    44    1
   118    41    42    1
   119    41    43    1
