@<TRIPOS>MOLECULE
7
 126 128 0 0 0
SMALL
GASTEIGER

@<TRIPOS>ATOM
      1 P           2.6754   16.0535    2.8355 P.3     1  UNL1        0.0000
      2 P           2.2768   14.8782    5.2847 P.3     1  UNL1        0.0000
      3 SI          4.1427   19.2967    3.4663 Si      1  UNL1        0.0000
      4 SI          1.0462   13.1842    2.8123 Si      1  UNL1        0.0000
      5 O           4.4272   17.7697    4.0133 O.2     1  UNL1        0.0000
      6 C           3.6345   16.6952    4.2165 C.2     1  UNL1        0.0000
      7 C           3.3434   16.2707    5.4943 C.2     1  UNL1        0.0000
      8 C           1.9877   14.6115    3.6175 C.3     1  UNL1        0.0000
      9 C           2.2662   19.6443    3.5291 C.3     1  UNL1        0.0000
     10 H           1.9195   19.6703    4.5588 H       1  UNL1        0.0000
     11 H           1.7032   18.8680    3.0152 H       1  UNL1        0.0000
     12 H           2.0123   20.5945    3.0715 H       1  UNL1        0.0000
     13 C           5.0990   20.4865    4.5914 C.3     1  UNL1        0.0000
     14 H           4.7691   20.4332    5.6235 H       1  UNL1        0.0000
     15 H           4.9680   21.5088    4.2522 H       1  UNL1        0.0000
     16 H           6.1620   20.2704    4.5775 H       1  UNL1        0.0000
     17 C           4.8353   19.4321    1.6955 C.3     1  UNL1        0.0000
     18 H           4.2410   18.8930    0.9658 H       1  UNL1        0.0000
     19 H           5.8434   19.0297    1.6512 H       1  UNL1        0.0000
     20 H           4.8806   20.4708    1.3852 H       1  UNL1        0.0000
     21 C           1.6779   12.9541    1.0207 C.3     1  UNL1        0.0000
     22 H           2.4134   13.7043    0.7438 H       1  UNL1        0.0000
     23 H           0.8635   13.0070    0.3048 H       1  UNL1        0.0000
     24 H           2.1460   11.9818    0.9015 H       1  UNL1        0.0000
     25 C           1.4076   11.5755    3.7610 C.3     1  UNL1        0.0000
     26 H           1.0150   10.7199    3.2196 H       1  UNL1        0.0000
     27 H           0.9386   11.5913    4.7386 H       1  UNL1        0.0000
     28 H           2.4732   11.4176    3.8962 H       1  UNL1        0.0000
     29 C          -0.8465   13.4381    2.8352 C.3     1  UNL1        0.0000
     30 H          -1.1633   14.3183    2.2845 H       1  UNL1        0.0000
     31 H          -1.2082   13.5302    3.8550 H       1  UNL1        0.0000
     32 H          -1.3404   12.5801    2.3889 H       1  UNL1        0.0000
     33 C           3.6948   15.9538    1.3101 C.ar    1  UNL1        0.0000
     34 C           5.0678   15.6157    1.3097 C.ar    1  UNL1        0.0000
     35 C           5.8680   16.1233    0.2902 C.ar    1  UNL1        0.0000
     36 H           6.9267   15.9509    0.3482 H       1  UNL1        0.0000
     37 C           5.3746   16.8415   -0.7802 C.ar    1  UNL1        0.0000
     38 C           3.9994   16.9867   -0.8469 C.ar    1  UNL1        0.0000
     39 H           3.5877   17.4753   -1.7133 H       1  UNL1        0.0000
     40 C           3.1405   16.5917    0.1714 C.ar    1  UNL1        0.0000
     41 C           5.8241   14.6890    2.2668 C.3     1  UNL1        0.0000
     42 C           6.8073   15.5109    3.1113 C.3     1  UNL1        0.0000
     43 H           6.2779   16.2690    3.6821 H       1  UNL1        0.0000
     44 H           7.5470   16.0106    2.4910 H       1  UNL1        0.0000
     45 H           7.3306   14.8614    3.8096 H       1  UNL1        0.0000
     46 C           4.9459   13.8705    3.2081 C.3     1  UNL1        0.0000
     47 H           4.5542   14.4892    4.0096 H       1  UNL1        0.0000
     48 H           5.5506   13.0925    3.6717 H       1  UNL1        0.0000
     49 H           4.1322   13.3920    2.6680 H       1  UNL1        0.0000
     50 C           6.5984   13.6510    1.4261 C.3     1  UNL1        0.0000
     51 H           7.3916   14.0887    0.8292 H       1  UNL1        0.0000
     52 H           5.9174   13.1262    0.7584 H       1  UNL1        0.0000
     53 H           7.0600   12.9213    2.0875 H       1  UNL1        0.0000
     54 C           6.2529   17.4200   -1.8763 C.3     1  UNL1        0.0000
     55 C           5.9114   16.7258   -3.2026 C.3     1  UNL1        0.0000
     56 H           6.5484   17.1056   -3.9983 H       1  UNL1        0.0000
     57 H           4.8763   16.8978   -3.4856 H       1  UNL1        0.0000
     58 H           6.0674   15.6523   -3.1177 H       1  UNL1        0.0000
     59 C           5.9871   18.9273   -1.9929 C.3     1  UNL1        0.0000
     60 H           6.6235   19.3595   -2.7621 H       1  UNL1        0.0000
     61 H           6.2015   19.4209   -1.0481 H       1  UNL1        0.0000
     62 H           4.9533   19.1321   -2.2563 H       1  UNL1        0.0000
     63 C           7.7457   17.2218   -1.6002 C.3     1  UNL1        0.0000
     64 H           8.3257   17.6908   -2.3924 H       1  UNL1        0.0000
     65 H           8.0059   16.1659   -1.5790 H       1  UNL1        0.0000
     66 H           8.0324   17.6819   -0.6574 H       1  UNL1        0.0000
     67 C           1.6640   16.8804   -0.1502 C.3     1  UNL1        0.0000
     68 C           1.4754   18.3909   -0.3733 C.3     1  UNL1        0.0000
     69 H           2.0452   18.7615   -1.2198 H       1  UNL1        0.0000
     70 H           1.7865   18.9406    0.5122 H       1  UNL1        0.0000
     71 H           0.4253   18.6052   -0.5606 H       1  UNL1        0.0000
     72 C           0.6086   16.4608    0.8739 C.3     1  UNL1        0.0000
     73 H           0.5901   17.1238    1.7356 H       1  UNL1        0.0000
     74 H           0.7570   15.4373    1.2035 H       1  UNL1        0.0000
     75 H          -0.3715   16.5210    0.4003 H       1  UNL1        0.0000
     76 C           1.3179   16.1094   -1.4401 C.3     1  UNL1        0.0000
     77 H           1.9645   16.3696   -2.2717 H       1  UNL1        0.0000
     78 H           0.2936   16.3252   -1.7365 H       1  UNL1        0.0000
     79 H           1.4076   15.0395   -1.2671 H       1  UNL1        0.0000
     80 C           1.0245   14.1307    6.3682 C.ar    1  UNL1        0.0000
     81 C          -0.2794   14.6880    6.3415 C.ar    1  UNL1        0.0000
     82 C          -1.3352   13.8521    6.6606 C.ar    1  UNL1        0.0000
     83 H          -2.3407   14.2203    6.5683 H       1  UNL1        0.0000
     84 C          -1.1622   12.5448    7.1008 C.ar    1  UNL1        0.0000
     85 C           0.1316   12.1294    7.3440 C.ar    1  UNL1        0.0000
     86 H           0.2940   11.1762    7.8117 H       1  UNL1        0.0000
     87 C           1.2445   12.8814    6.9710 C.ar    1  UNL1        0.0000
     88 C          -0.5587   16.1808    6.1437 C.3     1  UNL1        0.0000
     89 C          -2.0229   16.5398    6.4430 C.3     1  UNL1        0.0000
     90 H          -2.6995   16.1245    5.6989 H       1  UNL1        0.0000
     91 H          -2.1288   17.6222    6.4154 H       1  UNL1        0.0000
     92 H          -2.3201   16.2076    7.4347 H       1  UNL1        0.0000
     93 C           0.3043   16.9355    7.1623 C.3     1  UNL1        0.0000
     94 H           0.0749   16.6076    8.1743 H       1  UNL1        0.0000
     95 H           0.1157   18.0050    7.0958 H       1  UNL1        0.0000
     96 H           1.3646   16.7663    6.9773 H       1  UNL1        0.0000
     97 C          -0.2545   16.7015    4.7344 C.3     1  UNL1        0.0000
     98 H          -0.6382   16.0248    3.9754 H       1  UNL1        0.0000
     99 H           0.8148   16.8379    4.5859 H       1  UNL1        0.0000
    100 H          -0.7255   17.6736    4.6011 H       1  UNL1        0.0000
    101 C          -2.3777   11.6643    7.3333 C.3     1  UNL1        0.0000
    102 C          -3.2730   12.2993    8.4061 C.3     1  UNL1        0.0000
    103 H          -3.6475   13.2689    8.0902 H       1  UNL1        0.0000
    104 H          -2.7151   12.4333    9.3303 H       1  UNL1        0.0000
    105 H          -4.1263   11.6558    8.6081 H       1  UNL1        0.0000
    106 C          -2.0024   10.2533    7.7940 C.3     1  UNL1        0.0000
    107 H          -1.3550    9.7646    7.0693 H       1  UNL1        0.0000
    108 H          -2.9046    9.6542    7.8967 H       1  UNL1        0.0000
    109 H          -1.5062   10.2750    8.7614 H       1  UNL1        0.0000
    110 C          -3.1482   11.5458    6.0100 C.3     1  UNL1        0.0000
    111 H          -3.4917   12.5158    5.6612 H       1  UNL1        0.0000
    112 H          -4.0172   10.9047    6.1396 H       1  UNL1        0.0000
    113 H          -2.5104   11.1132    5.2418 H       1  UNL1        0.0000
    114 C           2.5932   12.3126    7.4085 C.3     1  UNL1        0.0000
    115 C           2.6856   12.5833    8.9206 C.3     1  UNL1        0.0000
    116 H           1.8621   12.1139    9.4535 H       1  UNL1        0.0000
    117 H           2.6547   13.6504    9.1200 H       1  UNL1        0.0000
    118 H           3.6199   12.1873    9.3116 H       1  UNL1        0.0000
    119 C           2.6949   10.7949    7.1729 C.3     1  UNL1        0.0000
    120 H           2.0628   10.2271    7.8494 H       1  UNL1        0.0000
    121 H           3.7190   10.4744    7.3498 H       1  UNL1        0.0000
    122 H           2.4303   10.5376    6.1515 H       1  UNL1        0.0000
    123 C           3.8001   12.9542    6.7374 C.3     1  UNL1        0.0000
    124 H           4.7130   12.5180    7.1420 H       1  UNL1        0.0000
    125 H           3.8453   14.0265    6.9466 H       1  UNL1        0.0000
    126 H           3.7915   12.7751    5.6618 H       1  UNL1        0.0000
@<TRIPOS>BOND
     1    56    55    1
     2    57    55    1
     3    55    58    1
     4    55    54    1
     5    60    59    1
     6    64    63    1
     7    77    76    1
     8    62    59    1
     9    59    54    1
    10    59    61    1
    11    54    63    1
    12    54    37    1
    13    78    76    1
    14    39    38    1
    15    63    65    1
    16    63    66    1
    17    76    79    1
    18    76    67    1
    19    69    68    1
    20    38    37   ar
    21    38    40   ar
    22    37    35   ar
    23    71    68    1
    24    68    67    1
    25    68    70    1
    26    67    40    1
    27    67    72    1
    28    40    33   ar
    29    35    36    1
    30    35    34   ar
    31    23    21    1
    32    75    72    1
    33    22    21    1
    34    52    50    1
    35    51    50    1
    36    72    74    1
    37    72    73    1
    38    24    21    1
    39    18    17    1
    40    21     4    1
    41    34    33   ar
    42    34    41    1
    43    33     1    1
    44    20    17    1
    45    50    53    1
    46    50    41    1
    47    19    17    1
    48    17     3    1
    49    41    42    1
    50    41    46    1
    51    30    29    1
    52    32    29    1
    53    44    42    1
    54    49    46    1
    55     4    29    1
    56     4     8    1
    57     4    25    1
    58    29    31    1
    59     1     8    1
    60     1     6    1
    61    11     9    1
    62    12     9    1
    63    42    43    1
    64    42    45    1
    65    46    48    1
    66    46    47    1
    67    26    25    1
    68     3     9    1
    69     3     5    1
    70     3    13    1
    71     9    10    1
    72     8     2    1
    73    25    28    1
    74    25    27    1
    75    98    97    1
    76     5     6    1
    77     6     7    2
    78    15    13    1
    79    16    13    1
    80    99    97    1
    81    13    14    1
    82   100    97    1
    83    97    88    1
    84   113   110    1
    85     2     7    1
    86     2    80    1
    87   111   110    1
    88   126   123    1
    89    90    89    1
    90   110   112    1
    91   110   101    1
    92    88    81    1
    93    88    89    1
    94    88    93    1
    95   122   119    1
    96    81    80   ar
    97    81    82   ar
    98    80    87   ar
    99    91    89    1
   100    89    92    1
   101    83    82    1
   102    82    84   ar
   103   123   125    1
   104   123   124    1
   105   123   114    1
   106    87    85   ar
   107    87   114    1
   108    96    93    1
   109   107   106    1
   110    95    93    1
   111    84   101    1
   112    84    85   ar
   113    93    94    1
   114   119   121    1
   115   119   114    1
   116   119   120    1
   117   101   106    1
   118   101   102    1
   119    85    86    1
   120   114   115    1
   121   106   108    1
   122   106   109    1
   123   103   102    1
   124   102   105    1
   125   102   104    1
   126   115   117    1
   127   115   118    1
   128   115   116    1
