@<TRIPOS>MOLECULE
3
 117 119 0 0 0
SMALL
GASTEIGER

@<TRIPOS>ATOM
      1 P           5.3600    9.3832    6.4806 P.3     1  UNL1        0.0000
      2 C           6.2299    7.9804    5.7347 C.2     1  UNL1        0.0000
      3 C           5.6420    7.3701    4.6479 C.2     1  UNL1        0.0000
      4 P           4.3418    8.4300    4.1459 P.3     1  UNL1        0.0000
      5 C           4.3245    9.8458    5.1074 C.3     1  UNL1        0.0000
      6 O           7.1196    7.2575    6.4680 O.2     1  UNL1        0.0000
      7 C           8.2055    7.9290    7.0745 C.3     1  UNL1        0.0000
      8 H           8.4779    7.3515    7.9580 H       1  UNL1        0.0000
      9 H           7.9420    8.9497    7.3670 H       1  UNL1        0.0000
     10 H           9.0619    7.9520    6.3916 H       1  UNL1        0.0000
     11 SI          3.1549   11.3262    4.9722 Si      1  UNL1        0.0000
     12 C           3.7614   12.7763    6.0465 C.3     1  UNL1        0.0000
     13 H           3.8406   12.4950    7.0910 H       1  UNL1        0.0000
     14 H           3.0599   13.6021    5.9794 H       1  UNL1        0.0000
     15 H           4.7338   13.1437    5.7394 H       1  UNL1        0.0000
     16 C           3.0879   11.8388    3.1373 C.3     1  UNL1        0.0000
     17 H           2.6486   11.0438    2.5425 H       1  UNL1        0.0000
     18 H           4.0654   12.0665    2.7235 H       1  UNL1        0.0000
     19 H           2.4697   12.7224    3.0142 H       1  UNL1        0.0000
     20 C           1.3648   10.9208    5.4883 C.3     1  UNL1        0.0000
     21 H           0.9500   10.1252    4.8775 H       1  UNL1        0.0000
     22 H           0.7359   11.7964    5.3578 H       1  UNL1        0.0000
     23 H           1.2944   10.6255    6.5308 H       1  UNL1        0.0000
     24 C           6.2745   10.8406    7.1380 C.ar    1  UNL1        0.0000
     25 C           7.0823   11.7255    6.3973 C.ar    1  UNL1        0.0000
     26 C           7.3994   12.9551    6.9774 C.ar    1  UNL1        0.0000
     27 H           7.9858   13.6480    6.4028 H       1  UNL1        0.0000
     28 C           6.9845   13.3377    8.2340 C.ar    1  UNL1        0.0000
     29 C           6.2886   12.3976    8.9799 C.ar    1  UNL1        0.0000
     30 H           6.0026   12.6697    9.9780 H       1  UNL1        0.0000
     31 C           5.9335   11.1560    8.4832 C.ar    1  UNL1        0.0000
     32 C           7.7299   11.5535    5.0153 C.3     1  UNL1        0.0000
     33 C           7.5670   10.1991    4.3358 C.3     1  UNL1        0.0000
     34 H           8.0331    9.4059    4.9092 H       1  UNL1        0.0000
     35 H           8.0594   10.2278    3.3649 H       1  UNL1        0.0000
     36 H           6.5209    9.9693    4.1606 H       1  UNL1        0.0000
     37 C           7.1468   12.6009    4.0528 C.3     1  UNL1        0.0000
     38 H           7.2419   13.6140    4.4332 H       1  UNL1        0.0000
     39 H           6.0914   12.3979    3.8846 H       1  UNL1        0.0000
     40 H           7.6650   12.5501    3.0974 H       1  UNL1        0.0000
     41 C           9.2503   11.7651    5.1680 C.3     1  UNL1        0.0000
     42 H           9.5144   12.7907    5.4063 H       1  UNL1        0.0000
     43 H           9.7488   11.5066    4.2366 H       1  UNL1        0.0000
     44 H           9.6418   11.1213    5.9534 H       1  UNL1        0.0000
     45 C           7.2652   14.7079    8.8270 C.3     1  UNL1        0.0000
     46 C           8.0315   15.6232    7.8682 C.3     1  UNL1        0.0000
     47 H           8.1855   16.5919    8.3389 H       1  UNL1        0.0000
     48 H           7.4729   15.7836    6.9488 H       1  UNL1        0.0000
     49 H           9.0090   15.2108    7.6283 H       1  UNL1        0.0000
     50 C           8.1015   14.5446   10.1037 C.3     1  UNL1        0.0000
     51 H           8.3289   15.5199   10.5284 H       1  UNL1        0.0000
     52 H           9.0385   14.0397    9.8778 H       1  UNL1        0.0000
     53 H           7.5736   13.9633   10.8546 H       1  UNL1        0.0000
     54 C           5.9257   15.3800    9.1609 C.3     1  UNL1        0.0000
     55 H           6.0963   16.3770    9.5610 H       1  UNL1        0.0000
     56 H           5.3678   14.8097    9.8985 H       1  UNL1        0.0000
     57 H           5.3152   15.4661    8.2643 H       1  UNL1        0.0000
     58 C           5.1861   10.2121    9.4424 C.3     1  UNL1        0.0000
     59 C           5.8310    8.8187    9.4757 C.3     1  UNL1        0.0000
     60 H           6.8718    8.9033    9.7823 H       1  UNL1        0.0000
     61 H           5.7898    8.3035    8.5192 H       1  UNL1        0.0000
     62 H           5.3117    8.1929   10.1984 H       1  UNL1        0.0000
     63 C           3.6966   10.1356    9.0734 C.3     1  UNL1        0.0000
     64 H           3.5438    9.7586    8.0646 H       1  UNL1        0.0000
     65 H           3.2471   11.1250    9.1379 H       1  UNL1        0.0000
     66 H           3.1795    9.4764    9.7672 H       1  UNL1        0.0000
     67 C           5.2351   10.7010   10.9027 C.3     1  UNL1        0.0000
     68 H           6.2577   10.8669   11.2337 H       1  UNL1        0.0000
     69 H           4.8006    9.9336   11.5399 H       1  UNL1        0.0000
     70 H           4.6519   11.6065   11.0530 H       1  UNL1        0.0000
     71 C           2.8894    8.0473    3.1359 C.ar    1  UNL1        0.0000
     72 C           2.8443    8.4427    1.7831 C.ar    1  UNL1        0.0000
     73 C           1.6053    8.4851    1.1521 C.ar    1  UNL1        0.0000
     74 H           1.5663    8.7773    0.1198 H       1  UNL1        0.0000
     75 C           0.4235    8.1765    1.7997 C.ar    1  UNL1        0.0000
     76 C           0.5261    7.6678    3.0837 C.ar    1  UNL1        0.0000
     77 H          -0.3752    7.3286    3.5657 H       1  UNL1        0.0000
     78 C           1.7259    7.5574    3.7742 C.ar    1  UNL1        0.0000
     79 C           4.0440    8.6891    0.8657 C.3     1  UNL1        0.0000
     80 C           5.3536    9.0244    1.5708 C.3     1  UNL1        0.0000
     81 H           5.6973    8.1930    2.1917 H       1  UNL1        0.0000
     82 H           5.2572    9.9365    2.1597 H       1  UNL1        0.0000
     83 H           6.1275    9.1891    0.8211 H       1  UNL1        0.0000
     84 C           4.2457    7.3775    0.0880 C.3     1  UNL1        0.0000
     85 H           3.3544    7.1163   -0.4776 H       1  UNL1        0.0000
     86 H           4.4662    6.5626    0.7739 H       1  UNL1        0.0000
     87 H           5.0791    7.4777   -0.6032 H       1  UNL1        0.0000
     88 C           3.7750    9.8308   -0.1339 C.3     1  UNL1        0.0000
     89 H           3.0820    9.5414   -0.9183 H       1  UNL1        0.0000
     90 H           4.7060   10.1084   -0.6226 H       1  UNL1        0.0000
     91 H           3.3833   10.7094    0.3724 H       1  UNL1        0.0000
     92 C          -0.9434    8.3186    1.1524 C.3     1  UNL1        0.0000
     93 C          -0.8740    8.9636   -0.2344 C.3     1  UNL1        0.0000
     94 H          -0.3248    8.3369   -0.9329 H       1  UNL1        0.0000
     95 H          -0.4053    9.9440   -0.1862 H       1  UNL1        0.0000
     96 H          -1.8815    9.0907   -0.6249 H       1  UNL1        0.0000
     97 C          -1.5752    6.9272    1.0079 C.3     1  UNL1        0.0000
     98 H          -0.9347    6.2839    0.4087 H       1  UNL1        0.0000
     99 H          -2.5431    7.0054    0.5180 H       1  UNL1        0.0000
    100 H          -1.7211    6.4544    1.9752 H       1  UNL1        0.0000
    101 C          -1.8241    9.2042    2.0459 C.3     1  UNL1        0.0000
    102 H          -2.8003    9.3430    1.5867 H       1  UNL1        0.0000
    103 H          -1.3629   10.1807    2.1795 H       1  UNL1        0.0000
    104 H          -1.9732    8.7607    3.0263 H       1  UNL1        0.0000
    105 C           1.6146    6.7754    5.0885 C.3     1  UNL1        0.0000
    106 C           1.1320    5.3628    4.7011 C.3     1  UNL1        0.0000
    107 H           0.1358    5.3733    4.2689 H       1  UNL1        0.0000
    108 H           1.1096    4.7256    5.5822 H       1  UNL1        0.0000
    109 H           1.8110    4.9203    3.9770 H       1  UNL1        0.0000
    110 C           2.9029    6.5835    5.8812 C.3     1  UNL1        0.0000
    111 H           3.6665    6.0837    5.2845 H       1  UNL1        0.0000
    112 H           2.6921    5.9460    6.7395 H       1  UNL1        0.0000
    113 H           3.2877    7.5261    6.2745 H       1  UNL1        0.0000
    114 C           0.6016    7.4188    6.0483 C.3     1  UNL1        0.0000
    115 H          -0.3556    7.6261    5.5799 H       1  UNL1        0.0000
    116 H           0.9985    8.3499    6.4420 H       1  UNL1        0.0000
    117 H           0.4235    6.7460    6.8844 H       1  UNL1        0.0000
@<TRIPOS>BOND
     1    94    93    1
     2    89    88    1
     3    96    93    1
     4    90    88    1
     5    87    84    1
     6    85    84    1
     7    93    95    1
     8    93    92    1
     9    88    91    1
    10    88    79    1
    11    84    86    1
    12    84    79    1
    13    74    73    1
    14    98    97    1
    15    99    97    1
    16    83    80    1
    17    79    80    1
    18    79    72    1
    19    97    92    1
    20    97   100    1
    21    73    72   ar
    22    73    75   ar
    23    92    75    1
    24    92   101    1
    25    80    82    1
    26    80    81    1
    27   102   101    1
    28    72    71   ar
    29    75    76   ar
    30   101   103    1
    31   101   104    1
    32    17    16    1
    33    18    16    1
    34    19    16    1
    35    76    77    1
    36    76    78   ar
    37    40    37    1
    38    71    78   ar
    39    71     4    1
    40    16    11    1
    41    35    33    1
    42    78   105    1
    43    39    37    1
    44   109   106    1
    45    37    38    1
    46    37    32    1
    47     4     3    1
    48     4     5    1
    49    36    33    1
    50    43    41    1
    51   107   106    1
    52    33    34    1
    53    33    32    1
    54     3     2    2
    55   106   105    1
    56   106   108    1
    57    21    20    1
    58    11     5    1
    59    11    20    1
    60    11    12    1
    61    32    41    1
    62    32    25    1
    63   105   110    1
    64   105   114    1
    65     5     1    1
    66    41    42    1
    67    41    44    1
    68   111   110    1
    69    22    20    1
    70    20    23    1
    71   115   114    1
    72     2     6    1
    73     2     1    1
    74    15    12    1
    75   110   113    1
    76   110   112    1
    77    14    12    1
    78    12    13    1
    79   114   116    1
    80   114   117    1
    81    10     7    1
    82    25    26   ar
    83    25    24   ar
    84    27    26    1
    85     6     7    1
    86     1    24    1
    87    48    46    1
    88    26    28   ar
    89     7     9    1
    90     7     8    1
    91    24    31   ar
    92    49    46    1
    93    46    47    1
    94    46    45    1
    95    64    63    1
    96    28    45    1
    97    28    29   ar
    98    57    54    1
    99    31    29   ar
   100    31    58    1
   101    61    59    1
   102    45    54    1
   103    45    50    1
   104    29    30    1
   105    63    65    1
   106    63    58    1
   107    63    66    1
   108    54    55    1
   109    54    56    1
   110    58    59    1
   111    58    67    1
   112    59    60    1
   113    59    62    1
   114    52    50    1
   115    50    51    1
   116    50    53    1
   117    67    70    1
   118    67    68    1
   119    67    69    1
