@<TRIPOS>MOLECULE
3
 22 22 0 0 0
SMALL
GASTEIGER

@<TRIPOS>ATOM
      1 SI          3.2936    3.1337   10.3615 Si      1  UNL1        0.0000
      2 C           1.6305    2.5067    9.7702 C.2     1  UNL1        0.0000
      3 C           0.4696    3.3563    9.5447 C.3     1  UNL1        0.0000
      4 H           0.3379    4.2320   10.1691 H       1  UNL1        0.0000
      5 C          -0.6356    2.4633    9.2939 C.2     1  UNL1        0.0000
      6 H          -1.6709    2.7673    9.2221 H       1  UNL1        0.0000
      7 C          -0.1569    1.1791    9.2677 C.2     1  UNL1        0.0000
      8 H          -0.7237    0.2859    9.0663 H       1  UNL1        0.0000
      9 C           1.2305    1.2086    9.5614 C.2     1  UNL1        0.0000
     10 H           1.8625    0.3396    9.6023 H       1  UNL1        0.0000
     11 C           3.1286    3.7572   12.1669 C.3     1  UNL1        0.0000
     12 H           2.7669    2.9690   12.8202 H       1  UNL1        0.0000
     13 H           2.4341    4.5885   12.2462 H       1  UNL1        0.0000
     14 H           4.0847    4.0940   12.5563 H       1  UNL1        0.0000
     15 C           4.5983    1.7423   10.3213 C.3     1  UNL1        0.0000
     16 H           4.3253    0.9374   10.9956 H       1  UNL1        0.0000
     17 H           5.5718    2.1114   10.6287 H       1  UNL1        0.0000
     18 H           4.7040    1.3167    9.3290 H       1  UNL1        0.0000
     19 C           3.8996    4.6086    9.3026 C.3     1  UNL1        0.0000
     20 H           3.1222    5.3619    9.2038 H       1  UNL1        0.0000
     21 H           4.1856    4.3021    8.2997 H       1  UNL1        0.0000
     22 H           4.7639    5.0866    9.7555 H       1  UNL1        0.0000
@<TRIPOS>BOND
     1    21    19    1
     2     8     7    1
     3    20    19    1
     4     6     5    1
     5     7     5    2
     6     7     9    1
     7     5     3    1
     8    19    22    1
     9    19     1    1
    10    18    15    1
    11     3     2    1
    12     3     4    1
    13     9    10    1
    14     9     2    2
    15     2     1    1
    16    15     1    1
    17    15    17    1
    18    15    16    1
    19     1    11    1
    20    11    13    1
    21    11    14    1
    22    11    12    1
