@<TRIPOS>MOLECULE
2
 25 25 0 0 0
SMALL
GASTEIGER

@<TRIPOS>ATOM
      1 C           0.7181    7.0697    7.6094 C.2     1  UNL1       -0.0584
      2 C          -0.3702    6.6546    6.7794 C.3     1  UNL1        0.0231
      3 C          -1.3993    6.1594    7.6372 C.2     1  UNL1       -0.0584
      4 C          -0.9298    6.2462    8.9645 C.2     1  UNL1       -0.0477
      5 C           0.3716    6.8040    8.9480 C.2     1  UNL1       -0.0477
      6 C           1.9153    7.8317    7.1361 C.3     1  UNL1       -0.0424
      7 H           2.7899    7.6205    7.7485 H       1  UNL1        0.0275
      8 H           1.7199    8.9052    7.1865 H       1  UNL1        0.0275
      9 H           2.1525    7.5806    6.1046 H       1  UNL1        0.0275
     10 C          -0.5191    7.0452    5.3405 C.3     1  UNL1       -0.0510
     11 H          -1.3542    6.5303    4.8719 H       1  UNL1        0.0242
     12 H           0.3863    6.8182    4.7768 H       1  UNL1        0.0242
     13 H          -0.6996    8.1195    5.2631 H       1  UNL1        0.0242
     14 C          -2.8245    5.8660    7.2824 C.3     1  UNL1       -0.0424
     15 H          -2.9890    5.9058    6.2084 H       1  UNL1        0.0275
     16 H          -3.4754    6.6102    7.7463 H       1  UNL1        0.0275
     17 H          -3.1392    4.8879    7.6506 H       1  UNL1        0.0275
     18 C          -1.7548    5.9678   10.1800 C.3     1  UNL1       -0.0395
     19 H          -2.2865    5.0204   10.0950 H       1  UNL1        0.0278
     20 H          -2.5052    6.7520   10.3071 H       1  UNL1        0.0278
     21 H          -1.1435    5.9433   11.0794 H       1  UNL1        0.0278
     22 C           1.1547    7.1795   10.1664 C.3     1  UNL1       -0.0395
     23 H           2.1343    7.5665    9.8985 H       1  UNL1        0.0278
     24 H           1.2944    6.3281   10.8349 H       1  UNL1        0.0278
     25 H           0.6279    7.9549   10.7260 H       1  UNL1        0.0278
@<TRIPOS>BOND
     1    12    10    1
     2    11    10    1
     3    13    10    1
     4    10     2    1
     5     9     6    1
     6    15    14    1
     7     2     1    1
     8     2     3    1
     9     6     8    1
    10     6     1    1
    11     6     7    1
    12    14     3    1
    13    14    17    1
    14    14    16    1
    15     1     5    2
    16     3     4    2
    17     5     4    1
    18     5    22    1
    19     4    18    1
    20    23    22    1
    21    19    18    1
    22    22    25    1
    23    22    24    1
    24    18    20    1
    25    18    21    1
