@<TRIPOS>MOLECULE
2
 8 8 0 0 0
SMALL
GASTEIGER

@<TRIPOS>ATOM
      1 O          -6.1219    4.0369    4.3089 O.2     1  UNL1       -0.4598
      2 C          -6.7048    2.7729    4.3429 C.ar    1  UNL1        0.1696
      3 C          -7.4337    2.6559    3.1822 C.ar    1  UNL1       -0.0128
      4 H          -8.0172    1.7999    2.8890 H       1  UNL1        0.0656
      5 C          -7.2968    3.8523    2.4310 C.ar    1  UNL1       -0.0232
      6 H          -7.7407    4.0759    1.4817 H       1  UNL1        0.0649
      7 C          -6.4881    4.6541    3.1657 C.ar    1  UNL1        0.0927
      8 H          -6.1153    5.6470    2.9996 H       1  UNL1        0.1029
@<TRIPOS>BOND
     1     6     5    1
     2     5     7   ar
     3     5     3   ar
     4     4     3    1
     5     8     7    1
     6     7     1   ar
     7     3     2   ar
     8     1     2   ar
