@<TRIPOS>MOLECULE
2
 16 15 0 0 0
SMALL
GASTEIGER

@<TRIPOS>ATOM
      1 SI          6.9969    9.2897    4.8052 Si      1  UNL1        0.0000
      2 C           7.6139    7.6721    5.5490 C.3     1  UNL1        0.0000
      3 H           6.7295    7.0673    5.8100 H       1  UNL1        0.0000
      4 H           8.0844    7.9134    6.5178 H       1  UNL1        0.0000
      5 C           5.5119    9.0115    3.6186 C.3     1  UNL1        0.0000
      6 H           5.8336    8.9286    2.5858 H       1  UNL1        0.0000
      7 H           4.8045    9.8329    3.6743 H       1  UNL1        0.0000
      8 H           4.9740    8.1021    3.8676 H       1  UNL1        0.0000
      9 C           6.3625   10.5862    6.0770 C.3     1  UNL1        0.0000
     10 H           5.4512   10.2406    6.5562 H       1  UNL1        0.0000
     11 H           6.1430   11.5403    5.6059 H       1  UNL1        0.0000
     12 H           7.0879   10.7713    6.8635 H       1  UNL1        0.0000
     13 C           8.4158   10.1259    3.8029 C.3     1  UNL1        0.0000
     14 H           9.3125    9.5027    3.8048 H       1  UNL1        0.0000
     15 H           8.6861   11.0941    4.2114 H       1  UNL1        0.0000
     16 H           8.1332   10.2820    2.7656 H       1  UNL1        0.0000
@<TRIPOS>BOND
     1     6     5    1
     2    16    13    1
     3     5     7    1
     4     5     8    1
     5     5     1    1
     6    13    14    1
     7    13    15    1
     8    13     1    1
     9     1     2    1
    10     1     9    1
    11     2     3    1
    12     2     4    1
    13    11     9    1
    14     9    10    1
    15     9    12    1
