@<TRIPOS>MOLECULE
2
 16 15 0 0 0
SMALL
GASTEIGER

@<TRIPOS>ATOM
      1 SI          9.4001    2.9325    3.3981 Si      1  UNL1        0.0000
      2 C           8.3693    4.1686    4.3792 C.3     1  UNL1        0.0000
      3 H           8.2180    3.7636    5.3903 H       1  UNL1        0.0000
      4 H           7.3606    4.1838    3.9307 H       1  UNL1        0.0000
      5 C           9.7028    3.6099    1.6289 C.3     1  UNL1        0.0000
      6 H           8.7681    3.7253    1.0875 H       1  UNL1        0.0000
      7 H          10.3392    2.9503    1.0470 H       1  UNL1        0.0000
      8 H          10.1838    4.5842    1.6659 H       1  UNL1        0.0000
      9 C          11.1002    2.6572    4.2441 C.3     1  UNL1        0.0000
     10 H          11.6014    3.6037    4.4301 H       1  UNL1        0.0000
     11 H          11.7591    2.0556    3.6256 H       1  UNL1        0.0000
     12 H          10.9911    2.1456    5.1955 H       1  UNL1        0.0000
     13 C           8.6194    1.1879    3.1870 C.3     1  UNL1        0.0000
     14 H           8.4377    0.7195    4.1498 H       1  UNL1        0.0000
     15 H           9.2626    0.5233    2.6177 H       1  UNL1        0.0000
     16 H           7.6668    1.2430    2.6684 H       1  UNL1        0.0000
@<TRIPOS>BOND
     1     7     5    1
     2     6     5    1
     3     5     8    1
     4     5     1    1
     5    15    13    1
     6    16    13    1
     7    13     1    1
     8    13    14    1
     9     1     9    1
    10     1     2    1
    11    11     9    1
    12     4     2    1
    13     9    10    1
    14     9    12    1
    15     2     3    1
