@<TRIPOS>MOLECULE
2
 16 15 0 0 0
SMALL
GASTEIGER

@<TRIPOS>ATOM
      1 SI         -2.7227    6.3978   17.1301 Si      1  UNL1        0.0000
      2 C          -3.2872    6.1407   15.3455 C.3     1  UNL1        0.0000
      3 H          -4.1981    5.5242   15.3567 H       1  UNL1        0.0000
      4 H          -2.5278    5.5437   14.8139 H       1  UNL1        0.0000
      5 C          -3.2968    8.1362   17.7291 C.3     1  UNL1        0.0000
      6 H          -2.4700    8.7206   18.1208 H       1  UNL1        0.0000
      7 H          -4.0392    8.0609   18.5168 H       1  UNL1        0.0000
      8 H          -3.7466    8.7004   16.9039 H       1  UNL1        0.0000
      9 C          -0.8124    6.3120   17.2885 C.3     1  UNL1        0.0000
     10 H          -0.4372    5.3296   17.0183 H       1  UNL1        0.0000
     11 H          -0.4953    6.5124   18.3073 H       1  UNL1        0.0000
     12 H          -0.3248    7.0385   16.6461 H       1  UNL1        0.0000
     13 C          -3.4229    5.1122   18.3697 C.3     1  UNL1        0.0000
     14 H          -4.5085    5.1072   18.3537 H       1  UNL1        0.0000
     15 H          -3.1119    5.3285   19.3872 H       1  UNL1        0.0000
     16 H          -3.0883    4.1074   18.1311 H       1  UNL1        0.0000
@<TRIPOS>BOND
     1     4     2    1
     2     2     3    1
     3     2     1    1
     4    12     9    1
     5     8     5    1
     6    10     9    1
     7     1     9    1
     8     1     5    1
     9     1    13    1
    10     9    11    1
    11     5     6    1
    12     5     7    1
    13    16    13    1
    14    14    13    1
    15    13    15    1
