@<TRIPOS>MOLECULE
2
 16 15 0 0 0
SMALL
GASTEIGER

@<TRIPOS>ATOM
      1 SI         -7.2016    7.7597   14.9605 Si      1  UNL1        0.0000
      2 C          -5.7684    8.8285   14.3658 C.3     1  UNL1        0.0000
      3 H          -5.7005    9.6934   15.0475 H       1  UNL1        0.0000
      4 H          -6.0277    9.2524   13.3789 H       1  UNL1        0.0000
      5 C          -6.9302    7.2674   16.7886 C.3     1  UNL1        0.0000
      6 H          -5.9758    6.7650   16.9149 H       1  UNL1        0.0000
      7 H          -7.7112    6.6028   17.1447 H       1  UNL1        0.0000
      8 H          -6.9281    8.1416   17.4316 H       1  UNL1        0.0000
      9 C          -7.3217    6.1394   13.9329 C.3     1  UNL1        0.0000
     10 H          -7.7848    6.3077   12.9649 H       1  UNL1        0.0000
     11 H          -7.9193    5.3942   14.4480 H       1  UNL1        0.0000
     12 H          -6.3347    5.7139   13.7675 H       1  UNL1        0.0000
     13 C          -8.9315    8.5890   14.8376 C.3     1  UNL1        0.0000
     14 H          -8.9820    9.4781   15.4584 H       1  UNL1        0.0000
     15 H          -9.7221    7.9189   15.1620 H       1  UNL1        0.0000
     16 H          -9.1569    8.8908   13.8186 H       1  UNL1        0.0000
@<TRIPOS>BOND
     1    10     9    1
     2     4     2    1
     3    12     9    1
     4    16    13    1
     5     9    11    1
     6     9     1    1
     7     2     1    1
     8     2     3    1
     9    13     1    1
    10    13    15    1
    11    13    14    1
    12     1     5    1
    13     5     6    1
    14     5     7    1
    15     5     8    1
