@<TRIPOS>MOLECULE
2
 16 15 0 0 0
SMALL
GASTEIGER

@<TRIPOS>ATOM
      1 SI          9.7232    3.5212    3.7903 Si      1  UNL1        0.0000
      2 C           7.9081    3.9071    3.4824 C.3     1  UNL1        0.0000
      3 H           7.3363    3.4745    4.3176 H       1  UNL1        0.0000
      4 H           7.5922    3.3367    2.5943 H       1  UNL1        0.0000
      5 C          10.6779    3.5846    2.1203 C.3     1  UNL1        0.0000
      6 H          10.7221    2.5965    1.6735 H       1  UNL1        0.0000
      7 H          11.7019    3.9251    2.2432 H       1  UNL1        0.0000
      8 H          10.1913    4.2406    1.4028 H       1  UNL1        0.0000
      9 C          10.0929    1.7968    4.5433 C.3     1  UNL1        0.0000
     10 H           9.6030    1.6812    5.5055 H       1  UNL1        0.0000
     11 H          11.1571    1.6429    4.6969 H       1  UNL1        0.0000
     12 H           9.7360    0.9991    3.8988 H       1  UNL1        0.0000
     13 C          10.4601    4.8034    5.0205 C.3     1  UNL1        0.0000
     14 H          11.4669    5.1091    4.7502 H       1  UNL1        0.0000
     15 H          10.5128    4.3853    6.0202 H       1  UNL1        0.0000
     16 H           9.8331    5.6932    5.0769 H       1  UNL1        0.0000
@<TRIPOS>BOND
     1     8     5    1
     2     6     5    1
     3     5     7    1
     4     5     1    1
     5     4     2    1
     6     2     1    1
     7     2     3    1
     8     1     9    1
     9     1    13    1
    10    12     9    1
    11     9    11    1
    12     9    10    1
    13    14    13    1
    14    13    16    1
    15    13    15    1
