@<TRIPOS>MOLECULE
2
 16 15 0 0 0
SMALL
GASTEIGER

@<TRIPOS>ATOM
      1 SI          5.8780    5.6922    6.6320 Si      1  UNL1        0.0000
      2 C           6.5537    6.8342    5.2885 C.3     1  UNL1        0.0000
      3 H           7.4028    7.3817    5.7289 H       1  UNL1        0.0000
      4 H           5.7911    7.6009    5.0627 H       1  UNL1        0.0000
      5 C           7.3156    4.7007    7.4185 C.3     1  UNL1        0.0000
      6 H           7.8886    4.1772    6.6595 H       1  UNL1        0.0000
      7 H           6.9492    3.9658    8.1283 H       1  UNL1        0.0000
      8 H           7.9977    5.3553    7.9517 H       1  UNL1        0.0000
      9 C           4.9628    6.5916    8.0616 C.3     1  UNL1        0.0000
     10 H           5.6258    7.2698    8.5902 H       1  UNL1        0.0000
     11 H           4.5683    5.8875    8.7880 H       1  UNL1        0.0000
     12 H           4.1281    7.1771    7.6876 H       1  UNL1        0.0000
     13 C           4.6272    4.4468    5.8775 C.3     1  UNL1        0.0000
     14 H           3.6381    4.8850    5.7875 H       1  UNL1        0.0000
     15 H           4.5305    3.5585    6.4936 H       1  UNL1        0.0000
     16 H           4.9490    4.1304    4.8854 H       1  UNL1        0.0000
@<TRIPOS>BOND
     1    16    13    1
     2     4     2    1
     3     2     3    1
     4     2     1    1
     5    14    13    1
     6    13    15    1
     7    13     1    1
     8     1     5    1
     9     1     9    1
    10     6     5    1
    11     5     8    1
    12     5     7    1
    13    12     9    1
    14     9    10    1
    15     9    11    1
