@<TRIPOS>MOLECULE
1
 4 3 0 0 0
SMALL
GASTEIGER

@<TRIPOS>ATOM
      1 C           8.7944    3.6930    3.9548 C.3     1  UNL1       -0.0681
      2 H           9.2554    3.4869    4.9282 H       1  UNL1        0.0227
      3 H           7.7321    3.8759    4.1262 H       1  UNL1        0.0227
      4 H           9.2377    4.6258    3.5890 H       1  UNL1        0.0227
@<TRIPOS>BOND
     1     4     1    1
     2     1     3    1
     3     1     2    1
