@<TRIPOS>MOLECULE
2
 15 14 0 0 0
SMALL
GASTEIGER

@<TRIPOS>ATOM
      1 SI          8.0335   18.3143   17.5022 Si      1  UNL1        0.0000
      2 C           7.0688   18.1498   19.1155 C.3     1  UNL1        0.0000
      3 H           6.2348   18.8712   19.1032 H       1  UNL1        0.0000
      4 C           9.9069   18.0583   17.7359 C.3     1  UNL1        0.0000
      5 H          10.2644   18.5523   18.6331 H       1  UNL1        0.0000
      6 H          10.4635   18.4615   16.8955 H       1  UNL1        0.0000
      7 H          10.1480   17.0062   17.8204 H       1  UNL1        0.0000
      8 C           7.3538   17.0407   16.2420 C.3     1  UNL1        0.0000
      9 H           7.4200   16.0289   16.6295 H       1  UNL1        0.0000
     10 H           7.9337   17.0779   15.3257 H       1  UNL1        0.0000
     11 H           6.3177   17.2339   15.9843 H       1  UNL1        0.0000
     12 C           7.8191   20.0623   16.7443 C.3     1  UNL1        0.0000
     13 H           8.0292   20.8341   17.4775 H       1  UNL1        0.0000
     14 H           6.8168   20.2331   16.3634 H       1  UNL1        0.0000
     15 H           8.5053   20.2025   15.9147 H       1  UNL1        0.0000
@<TRIPOS>BOND
     1    10     8    1
     2    15    12    1
     3    11     8    1
     4     8     9    1
     5     8     1    1
     6    14    12    1
     7    12    13    1
     8    12     1    1
     9     6     4    1
    10     1     4    1
    11     1     2    1
    12     4     7    1
    13     4     5    1
    14     3     2    1
