@<TRIPOS>MOLECULE
35
 37 36 0 0 0
SMALL
GASTEIGER

@<TRIPOS>ATOM
      1 SI         -0.1231   12.6392    6.0193 Si      1  UNL1        0.0000
      2 O          -1.1569   11.4101    5.6971 O.3     1  UNL1        0.0000
      3 O           1.2792   11.8694    6.3266 O.3     1  UNL1        0.0000
      4 O          -0.4990   13.4598    7.3896 O.3     1  UNL1        0.0000
      5 C          -2.4881   11.4348    5.2275 C.3     1  UNL1        0.0000
      6 H          -2.6540   12.3630    4.6623 H       1  UNL1        0.0000
      7 C           2.0075   11.0019    5.4798 C.3     1  UNL1        0.0000
      8 H           1.3533   10.6631    4.6678 H       1  UNL1        0.0000
      9 C          -0.6718   12.8675    8.6679 C.3     1  UNL1        0.0000
     10 H          -1.1420   11.8841    8.5356 H       1  UNL1        0.0000
     11 C          -2.6848   10.2397    4.2992 C.3     1  UNL1        0.0000
     12 H          -1.9832   10.2961    3.4713 H       1  UNL1        0.0000
     13 H          -3.6978   10.2306    3.9068 H       1  UNL1        0.0000
     14 H          -2.5030    9.3173    4.8446 H       1  UNL1        0.0000
     15 C          -3.4556   11.3910    6.4076 C.3     1  UNL1        0.0000
     16 H          -3.2704   12.2326    7.0701 H       1  UNL1        0.0000
     17 H          -3.3107   10.4713    6.9690 H       1  UNL1        0.0000
     18 H          -4.4824   11.4355    6.0546 H       1  UNL1        0.0000
     19 C           2.4533    9.7967    6.3021 C.3     1  UNL1        0.0000
     20 H           1.5828    9.3014    6.7232 H       1  UNL1        0.0000
     21 H           3.0977   10.1215    7.1155 H       1  UNL1        0.0000
     22 H           2.9959    9.0941    5.6757 H       1  UNL1        0.0000
     23 C           3.1987   11.7547    4.8933 C.3     1  UNL1        0.0000
     24 H           2.8522   12.6162    4.3276 H       1  UNL1        0.0000
     25 H           3.7671   11.1031    4.2355 H       1  UNL1        0.0000
     26 H           3.8457   12.1036    5.6947 H       1  UNL1        0.0000
     27 C           0.6783   12.6747    9.3506 C.3     1  UNL1        0.0000
     28 H           1.3141   12.0703    8.7120 H       1  UNL1        0.0000
     29 H           0.5477   12.1792   10.3091 H       1  UNL1        0.0000
     30 H           1.1597   13.6366    9.5085 H       1  UNL1        0.0000
     31 C          -1.5959   13.7518    9.5011 C.3     1  UNL1        0.0000
     32 H          -2.5272   13.9346    8.9707 H       1  UNL1        0.0000
     33 H          -1.1178   14.7070    9.7046 H       1  UNL1        0.0000
     34 H          -1.8196   13.2652   10.4469 H       1  UNL1        0.0000
     35 C          -0.0528   13.9995    4.7191 C.3     1  UNL1        0.0000
     36 H          -0.8630   13.8646    3.9912 H       1  UNL1        0.0000
     37 H           0.8774   13.8998    4.1461 H       1  UNL1        0.0000
@<TRIPOS>BOND
     1    12    11    1
     2    13    11    1
     3    36    35    1
     4    37    35    1
     5    25    23    1
     6    11    14    1
     7    11     5    1
     8    24    23    1
     9     6     5    1
    10     8     7    1
    11    35     1    1
    12    23     7    1
    13    23    26    1
    14     5     2    1
    15     5    15    1
    16     7    19    1
    17     7     3    1
    18    22    19    1
    19     2     1    1
    20     1     3    1
    21     1     4    1
    22    18    15    1
    23    19    20    1
    24    19    21    1
    25    15    17    1
    26    15    16    1
    27     4     9    1
    28    10     9    1
    29     9    27    1
    30     9    31    1
    31    28    27    1
    32    32    31    1
    33    27    30    1
    34    27    29    1
    35    31    33    1
    36    31    34    1
