@<TRIPOS>MOLECULE
1
 7 6 0 0 0
SMALL
GASTEIGER

@<TRIPOS>ATOM
      1 C           1.6293    4.4051    6.6787 C.3     1  UNL1       -0.0562
      2 C           0.3375    5.2400    6.7637 C.3     1  UNL1       -0.0653
      3 H          -0.4811    4.6715    7.2236 H       1  UNL1        0.0230
      4 H           0.4920    6.1362    7.3757 H       1  UNL1        0.0230
      5 H          -0.0040    5.5440    5.7695 H       1  UNL1        0.0230
      6 H           1.4257    3.5358    6.0230 H       1  UNL1        0.0263
      7 H           1.8176    3.9965    7.6935 H       1  UNL1        0.0263
@<TRIPOS>BOND
     1     5     2    1
     2     6     1    1
     3     1     2    1
     4     1     7    1
     5     2     3    1
     6     2     4    1
