@<TRIPOS>MOLECULE
2
 16 15 0 0 0
SMALL
GASTEIGER

@<TRIPOS>ATOM
      1 SI          5.0420   -1.4371   14.1786 Si      1  UNL1        0.0000
      2 C           5.5930    0.2925   13.6959 C.3     1  UNL1        0.0000
      3 H           5.3144    0.4648   12.6486 H       1  UNL1        0.0000
      4 H           6.6892    0.3490   13.7287 H       1  UNL1        0.0000
      5 C           6.3733   -2.7972   13.9068 C.3     1  UNL1        0.0000
      6 H           6.6618   -2.8638   12.8622 H       1  UNL1        0.0000
      7 H           6.0162   -3.7762   14.2113 H       1  UNL1        0.0000
      8 H           7.2705   -2.5852   14.4809 H       1  UNL1        0.0000
      9 C           4.5865   -1.5093   16.0421 C.3     1  UNL1        0.0000
     10 H           5.4682   -1.4221   16.6710 H       1  UNL1        0.0000
     11 H           4.1060   -2.4504   16.2936 H       1  UNL1        0.0000
     12 H           3.9029   -0.7066   16.3173 H       1  UNL1        0.0000
     13 C           3.4994   -1.9762   13.1825 C.3     1  UNL1        0.0000
     14 H           2.7010   -1.2467   13.2682 H       1  UNL1        0.0000
     15 H           3.1144   -2.9294   13.5312 H       1  UNL1        0.0000
     16 H           3.7317   -2.0838   12.1275 H       1  UNL1        0.0000
@<TRIPOS>BOND
     1    16    13    1
     2     3     2    1
     3     6     5    1
     4    13    14    1
     5    13    15    1
     6    13     1    1
     7     2     4    1
     8     2     1    1
     9     5     1    1
    10     5     7    1
    11     5     8    1
    12     1     9    1
    13     9    11    1
    14     9    12    1
    15     9    10    1
