@<TRIPOS>MOLECULE
3
 65 67 0 0 0
SMALL
GASTEIGER

@<TRIPOS>ATOM
      1 N           7.2548    4.0594   12.8146 N.pl3   1  UNL1       -0.2762
      2 N           7.8331    4.0413   14.8691 N.pl3   1  UNL1       -0.2762
      3 C           6.8046    3.7256   14.0474 C.3     1  UNL1        0.1959
      4 C           8.5257    4.5744   12.8710 C.2     1  UNL1        0.0131
      5 H           9.0503    4.9096   12.0002 H       1  UNL1        0.0797
      6 C           8.8941    4.5616   14.1718 C.2     1  UNL1        0.0131
      7 H           9.7970    4.8759   14.6532 H       1  UNL1        0.0797
      8 C           6.4997    3.9955   11.6080 C.ar    1  UNL1        0.0424
      9 C           5.5704    5.0118   11.3470 C.ar    1  UNL1       -0.0231
     10 C           4.8737    4.9649   10.1480 C.ar    1  UNL1       -0.0565
     11 H           4.1525    5.7306    9.9153 H       1  UNL1        0.0621
     12 C           5.0904    3.9444    9.2414 C.ar    1  UNL1       -0.0611
     13 H           4.5364    3.9234    8.3148 H       1  UNL1        0.0618
     14 C           6.0174    2.9580    9.5107 C.ar    1  UNL1       -0.0565
     15 H           6.1827    2.1755    8.7881 H       1  UNL1        0.0621
     16 C           6.7393    2.9627   10.6976 C.ar    1  UNL1       -0.0231
     17 C           5.3825    6.1558   12.3213 C.3     1  UNL1       -0.0197
     18 H           5.5016    5.7603   13.3362 H       1  UNL1        0.0344
     19 C           4.0015    6.8061   12.2434 C.3     1  UNL1       -0.0586
     20 H           3.8750    7.4840   13.0849 H       1  UNL1        0.0235
     21 H           3.2161    6.0569   12.2885 H       1  UNL1        0.0235
     22 H           3.8885    7.3864   11.3308 H       1  UNL1        0.0235
     23 C           6.4588    7.2206   12.0732 C.3     1  UNL1       -0.0586
     24 H           6.3888    7.5927   11.0530 H       1  UNL1        0.0235
     25 H           7.4587    6.8208   12.2234 H       1  UNL1        0.0235
     26 H           6.3198    8.0568   12.7549 H       1  UNL1        0.0235
     27 C           7.7867    1.9029   10.9565 C.3     1  UNL1       -0.0197
     28 H           7.9732    1.8542   12.0345 H       1  UNL1        0.0344
     29 C           9.0924    2.2760   10.2440 C.3     1  UNL1       -0.0586
     30 H           8.9223    2.3644    9.1731 H       1  UNL1        0.0235
     31 H           9.8407    1.5047   10.4122 H       1  UNL1        0.0235
     32 H           9.4904    3.2210   10.6036 H       1  UNL1        0.0235
     33 C           7.3450    0.5131   10.4933 C.3     1  UNL1       -0.0586
     34 H           6.3316    0.2991   10.8191 H       1  UNL1        0.0235
     35 H           8.0047   -0.2404   10.9172 H       1  UNL1        0.0235
     36 H           7.3896    0.4264    9.4105 H       1  UNL1        0.0235
     37 C           7.8141    3.9368   16.2875 C.ar    1  UNL1        0.0424
     38 C           7.2958    5.0030   17.0304 C.ar    1  UNL1       -0.0231
     39 C           7.3081    4.9012   18.4148 C.ar    1  UNL1       -0.0565
     40 H           6.8966    5.6975   19.0141 H       1  UNL1        0.0621
     41 C           7.8377    3.7873   19.0383 C.ar    1  UNL1       -0.0611
     42 H           7.8401    3.7258   20.1160 H       1  UNL1        0.0618
     43 C           8.3572    2.7506   18.2882 C.ar    1  UNL1       -0.0565
     44 H           8.7687    1.8885   18.7888 H       1  UNL1        0.0621
     45 C           8.3493    2.8017   16.9002 C.ar    1  UNL1       -0.0231
     46 C           6.7021    6.2152   16.3508 C.3     1  UNL1       -0.0197
     47 H           7.0116    6.2232   15.3008 H       1  UNL1        0.0344
     48 C           7.1884    7.5232   16.9782 C.3     1  UNL1       -0.0586
     49 H           6.7943    7.6515   17.9823 H       1  UNL1        0.0235
     50 H           6.8546    8.3659   16.3768 H       1  UNL1        0.0235
     51 H           8.2751    7.5443   17.0277 H       1  UNL1        0.0235
     52 C           5.1735    6.1261   16.3966 C.3     1  UNL1       -0.0586
     53 H           4.8281    6.1050   17.4276 H       1  UNL1        0.0235
     54 H           4.8261    5.2151   15.9006 H       1  UNL1        0.0235
     55 H           4.7322    6.9878   15.9002 H       1  UNL1        0.0235
     56 C           8.9235    1.6628   16.0904 C.3     1  UNL1       -0.0197
     57 H           8.7424    1.8523   15.0270 H       1  UNL1        0.0344
     58 C           8.2356    0.3434   16.4447 C.3     1  UNL1       -0.0586
     59 H           8.4376    0.0593   17.4741 H       1  UNL1        0.0235
     60 H           8.5960   -0.4507   15.7947 H       1  UNL1        0.0235
     61 H           7.1574    0.4380   16.3090 H       1  UNL1        0.0235
     62 C          10.4367    1.5688   16.3065 C.3     1  UNL1       -0.0586
     63 H          10.9247    2.5003   16.0259 H       1  UNL1        0.0235
     64 H          10.8519    0.7666   15.7009 H       1  UNL1        0.0235
     65 H          10.6654    1.3653   17.3496 H       1  UNL1        0.0235
@<TRIPOS>BOND
     1    13    12    1
     2    15    14    1
     3    30    29    1
     4    12    14   ar
     5    12    10   ar
     6    36    33    1
     7    14    16   ar
     8    11    10    1
     9    10     9   ar
    10    29    31    1
    11    29    32    1
    12    29    27    1
    13    33    34    1
    14    33    35    1
    15    33    27    1
    16    16    27    1
    17    16     8   ar
    18    27    28    1
    19    24    23    1
    20    22    19    1
    21     9     8   ar
    22     9    17    1
    23     8     1    1
    24     5     4    1
    25    23    25    1
    26    23    17    1
    27    23    26    1
    28    19    21    1
    29    19    17    1
    30    19    20    1
    31    17    18    1
    32     1     4    1
    33     1     3    1
    34     4     6    2
    35     3     2    1
    36     6     7    1
    37     6     2    1
    38     2    37    1
    39    57    56    1
    40    47    46    1
    41    64    62    1
    42    60    58    1
    43    55    52    1
    44    54    52    1
    45    63    62    1
    46    56    62    1
    47    56    58    1
    48    56    45    1
    49    37    45   ar
    50    37    38   ar
    51    62    65    1
    52    61    58    1
    53    46    52    1
    54    46    48    1
    55    46    38    1
    56    50    48    1
    57    52    53    1
    58    58    59    1
    59    45    43   ar
    60    48    51    1
    61    48    49    1
    62    38    39   ar
    63    43    44    1
    64    43    41   ar
    65    39    40    1
    66    39    41   ar
    67    41    42    1
