@<TRIPOS>MOLECULE
2
 16 15 0 0 0
SMALL
GASTEIGER

@<TRIPOS>ATOM
      1 SI          1.6959    2.4061   12.8496 Si      1  UNL1        0.0000
      2 C           3.1005    3.4388   13.5372 C.3     1  UNL1        0.0000
      3 H           2.7075    4.2841   14.1166 H       1  UNL1        0.0000
      4 H           3.6561    3.8655   12.6944 H       1  UNL1        0.0000
      5 C           0.1455    3.3696   12.2494 C.3     1  UNL1        0.0000
      6 H          -0.2692    3.9734   13.0509 H       1  UNL1        0.0000
      7 H          -0.6389    2.7031   11.9034 H       1  UNL1        0.0000
      8 H           0.3918    4.0390   11.4307 H       1  UNL1        0.0000
      9 C           2.3460    1.4080   11.3502 C.3     1  UNL1        0.0000
     10 H           2.6935    2.0725   10.5648 H       1  UNL1        0.0000
     11 H           1.5778    0.7693   10.9263 H       1  UNL1        0.0000
     12 H           3.1800    0.7757   11.6383 H       1  UNL1        0.0000
     13 C           1.0784    1.1787   14.1906 C.3     1  UNL1        0.0000
     14 H           1.9135    0.6345   14.6373 H       1  UNL1        0.0000
     15 H           0.3876    0.4478   13.7806 H       1  UNL1        0.0000
     16 H           0.5583    1.7010   14.9886 H       1  UNL1        0.0000
@<TRIPOS>BOND
     1    10     9    1
     2    11     9    1
     3     9    12    1
     4     9     1    1
     5     8     5    1
     6     7     5    1
     7     5     1    1
     8     5     6    1
     9     4     2    1
    10     1     2    1
    11     1    13    1
    12     2     3    1
    13    15    13    1
    14    13    14    1
    15    13    16    1
