@<TRIPOS>MOLECULE
2
 16 15 0 0 0
SMALL
GASTEIGER

@<TRIPOS>ATOM
      1 SI          3.0514    2.4976   18.1843 Si      1  UNL1        0.0000
      2 C           4.6962    2.2878   17.2993 C.3     1  UNL1        0.0000
      3 H           5.1813    1.3850   17.6954 H       1  UNL1        0.0000
      4 H           5.3461    3.1188   17.6022 H       1  UNL1        0.0000
      5 C           1.9913    3.8438   17.3218 C.3     1  UNL1        0.0000
      6 H           2.4821    4.8122   17.3433 H       1  UNL1        0.0000
      7 H           1.0285    3.9585   17.8109 H       1  UNL1        0.0000
      8 H           1.8035    3.5890   16.2813 H       1  UNL1        0.0000
      9 C           3.2118    3.0361   20.0231 C.3     1  UNL1        0.0000
     10 H           3.7472    2.2896   20.6017 H       1  UNL1        0.0000
     11 H           2.2442    3.1836   20.4932 H       1  UNL1        0.0000
     12 H           3.7629    3.9681   20.1077 H       1  UNL1        0.0000
     13 C           2.0347    0.8758   18.1785 C.3     1  UNL1        0.0000
     14 H           1.7994    0.5589   17.1669 H       1  UNL1        0.0000
     15 H           1.0952    0.9982   18.7089 H       1  UNL1        0.0000
     16 H           2.5780    0.0688   18.6598 H       1  UNL1        0.0000
@<TRIPOS>BOND
     1     8     5    1
     2    14    13    1
     3     2     4    1
     4     2     3    1
     5     2     1    1
     6     5     6    1
     7     5     7    1
     8     5     1    1
     9    13     1    1
    10    13    16    1
    11    13    15    1
    12     1     9    1
    13     9    12    1
    14     9    11    1
    15     9    10    1
