@<TRIPOS>MOLECULE
2
 16 15 0 0 0
SMALL
GASTEIGER

@<TRIPOS>ATOM
      1 SI          1.2472    3.5075    2.0899 Si      1  UNL1        0.0000
      2 C           1.9284    4.9517    3.0698 C.3     1  UNL1        0.0000
      3 H           2.4312    5.6397    2.3781 H       1  UNL1        0.0000
      4 H           2.7244    4.5588    3.7162 H       1  UNL1        0.0000
      5 C           0.4796    4.0738    0.4200 C.3     1  UNL1        0.0000
      6 H          -0.1748    4.9294    0.5475 H       1  UNL1        0.0000
      7 H          -0.1014    3.2822   -0.0437 H       1  UNL1        0.0000
      8 H           1.2592    4.3556   -0.2811 H       1  UNL1        0.0000
      9 C           2.5335    2.1674    1.5936 C.3     1  UNL1        0.0000
     10 H           3.3129    2.5838    0.9624 H       1  UNL1        0.0000
     11 H           2.0805    1.3411    1.0531 H       1  UNL1        0.0000
     12 H           3.0160    1.7558    2.4748 H       1  UNL1        0.0000
     13 C          -0.1043    2.5526    3.0648 C.3     1  UNL1        0.0000
     14 H           0.3493    1.8921    3.7969 H       1  UNL1        0.0000
     15 H          -0.7225    1.9386    2.4151 H       1  UNL1        0.0000
     16 H          -0.7522    3.2354    3.6070 H       1  UNL1        0.0000
@<TRIPOS>BOND
     1     8     5    1
     2     7     5    1
     3     5     6    1
     4     5     1    1
     5    10     9    1
     6    11     9    1
     7     9     1    1
     8     9    12    1
     9     1    13    1
    10     1     2    1
    11     3     2    1
    12    15    13    1
    13    13    16    1
    14    13    14    1
    15     2     4    1
