@<TRIPOS>MOLECULE
2
 16 15 0 0 0
SMALL
GASTEIGER

@<TRIPOS>ATOM
      1 SI          1.0935    4.0794    7.4870 Si      1  UNL1        0.0000
      2 C          -0.2141    4.8684    6.3935 C.3     1  UNL1        0.0000
      3 H          -0.9262    5.4254    7.0141 H       1  UNL1        0.0000
      4 H          -0.7922    4.0482    5.9498 H       1  UNL1        0.0000
      5 C           2.4027    3.1801    6.4182 C.3     1  UNL1        0.0000
      6 H           1.9372    2.6375    5.6017 H       1  UNL1        0.0000
      7 H           2.9790    2.4685    7.0023 H       1  UNL1        0.0000
      8 H           3.0999    3.8913    5.9844 H       1  UNL1        0.0000
      9 C           2.0519    5.3453    8.5661 C.3     1  UNL1        0.0000
     10 H           2.3203    6.2276    7.9933 H       1  UNL1        0.0000
     11 H           2.9733    4.9085    8.9388 H       1  UNL1        0.0000
     12 H           1.4759    5.6653    9.4279 H       1  UNL1        0.0000
     13 C           0.4123    2.7765    8.7308 C.3     1  UNL1        0.0000
     14 H          -0.3554    3.2048    9.3687 H       1  UNL1        0.0000
     15 H           1.1909    2.3815    9.3766 H       1  UNL1        0.0000
     16 H          -0.0341    1.9375    8.2058 H       1  UNL1        0.0000
@<TRIPOS>BOND
     1     6     5    1
     2     4     2    1
     3     8     5    1
     4     2     3    1
     5     2     1    1
     6     5     7    1
     7     5     1    1
     8     1     9    1
     9     1    13    1
    10    10     9    1
    11    16    13    1
    12     9    11    1
    13     9    12    1
    14    13    14    1
    15    13    15    1
