@<TRIPOS>MOLECULE
1
 4 3 0 0 0
SMALL
GASTEIGER

@<TRIPOS>ATOM
      1 C           0.7086    7.7011    2.6593 C.3     1  UNL1       -0.0681
      2 H           0.6859    7.7746    1.5612 H       1  UNL1        0.0227
      3 H          -0.1308    7.0487    2.9344 H       1  UNL1        0.0227
      4 H           1.6308    7.1544    2.9193 H       1  UNL1        0.0227
@<TRIPOS>BOND
     1     2     1    1
     2     1     4    1
     3     1     3    1
