@<TRIPOS>MOLECULE
1
 4 3 0 0 0
SMALL
GASTEIGER

@<TRIPOS>ATOM
      1 C           4.5581    7.8345   19.4417 C.3     1  UNL1       -0.0681
      2 H           4.4396    7.4167   20.4466 H       1  UNL1        0.0227
      3 H           3.8788    7.2708   18.7993 H       1  UNL1        0.0227
      4 H           4.1669    8.8514   19.4782 H       1  UNL1        0.0227
@<TRIPOS>BOND
     1     3     1    1
     2     1     4    1
     3     1     2    1
