@<TRIPOS>MOLECULE
2
 16 15 0 0 0
SMALL
GASTEIGER

@<TRIPOS>ATOM
      1 SI          3.9736    6.5320    5.2780 Si      1  UNL1        0.0000
      2 C           2.2359    6.0070    4.7643 C.3     1  UNL1        0.0000
      3 C           5.0352    6.9098    3.7264 C.3     1  UNL1        0.0000
      4 C           4.0697    8.1091    6.3734 C.3     1  UNL1        0.0000
      5 C           4.8027    5.1027    6.2626 C.3     1  UNL1        0.0000
      6 H           1.8893    6.7085    3.9870 H       1  UNL1        0.0000
      7 H           1.5696    6.1738    5.6287 H       1  UNL1        0.0000
      8 H           5.0765    6.0532    3.0607 H       1  UNL1        0.0000
      9 H           6.0543    7.1639    3.9992 H       1  UNL1        0.0000
     10 H           4.6306    7.7456    3.1642 H       1  UNL1        0.0000
     11 H           3.6596    8.9721    5.8572 H       1  UNL1        0.0000
     12 H           5.0947    8.3474    6.6419 H       1  UNL1        0.0000
     13 H           3.5111    7.9858    7.2964 H       1  UNL1        0.0000
     14 H           4.1345    4.2410    6.3273 H       1  UNL1        0.0000
     15 H           5.0583    5.3986    7.2753 H       1  UNL1        0.0000
     16 H           5.7189    4.7736    5.7828 H       1  UNL1        0.0000
@<TRIPOS>BOND
     1     8     3    1
     2    10     3    1
     3     3     9    1
     4     3     1    1
     5     6     2    1
     6     2     1    1
     7     2     7    1
     8     1     5    1
     9     1     4    1
    10    16     5    1
    11    11     4    1
    12     5    14    1
    13     5    15    1
    14     4    12    1
    15     4    13    1
