@<TRIPOS>MOLECULE
2
 16 15 0 0 0
SMALL
GASTEIGER

@<TRIPOS>ATOM
      1 SI          3.6899    1.5433    2.0054 Si      1  UNL1        0.0000
      2 C           3.8545    2.9827    3.2064 C.3     1  UNL1        0.0000
      3 C           1.9950    0.6799    2.3348 C.3     1  UNL1        0.0000
      4 C           5.0110    0.1511    2.0699 C.3     1  UNL1        0.0000
      5 C           3.7246    2.1601    0.1871 C.3     1  UNL1        0.0000
      6 H           4.3651    3.8029    2.6789 H       1  UNL1        0.0000
      7 H           4.5518    2.6965    4.0079 H       1  UNL1        0.0000
      8 H           1.3399    1.3401    2.9189 H       1  UNL1        0.0000
      9 H           2.1205   -0.2380    2.9013 H       1  UNL1        0.0000
     10 H           1.4794    0.4178    1.4154 H       1  UNL1        0.0000
     11 H           6.0157    0.5611    2.0338 H       1  UNL1        0.0000
     12 H           4.9077   -0.5336    1.2329 H       1  UNL1        0.0000
     13 H           4.9305   -0.4366    2.9792 H       1  UNL1        0.0000
     14 H           3.2375    3.1243    0.0919 H       1  UNL1        0.0000
     15 H           3.2375    1.4669   -0.4926 H       1  UNL1        0.0000
     16 H           4.7480    2.2818   -0.1532 H       1  UNL1        0.0000
@<TRIPOS>BOND
     1    15     5    1
     2    16     5    1
     3    14     5    1
     4     5     1    1
     5    12     4    1
     6    10     3    1
     7     1     4    1
     8     1     3    1
     9     1     2    1
    10    11     4    1
    11     4    13    1
    12     3     9    1
    13     3     8    1
    14     6     2    1
    15     2     7    1
