@<TRIPOS>MOLECULE
2
 16 15 0 0 0
SMALL
GASTEIGER

@<TRIPOS>ATOM
      1 SI          3.3264   -0.9741    7.3556 Si      1  UNL1        0.0000
      2 C           4.6672    0.2024    6.7056 C.3     1  UNL1        0.0000
      3 C           3.3836   -2.6359    6.4046 C.3     1  UNL1        0.0000
      4 C           3.5416   -1.3875    9.2090 C.3     1  UNL1        0.0000
      5 C           1.5862   -0.1932    7.1463 C.3     1  UNL1        0.0000
      6 H           5.2443    0.5478    7.5689 H       1  UNL1        0.0000
      7 H           4.2573   -3.2089    6.6978 H       1  UNL1        0.0000
      8 H           3.4338   -2.5005    5.3286 H       1  UNL1        0.0000
      9 H           2.7774   -2.0785    9.5505 H       1  UNL1        0.0000
     10 H           3.4756   -0.4998    9.8304 H       1  UNL1        0.0000
     11 H           0.8172   -0.9525    7.0406 H       1  UNL1        0.0000
     12 H           1.5482    0.4573    6.2746 H       1  UNL1        0.0000
     13 H           5.3624   -0.4042    6.1166 H       1  UNL1        0.0000
     14 H           2.5128   -3.2476    6.6180 H       1  UNL1        0.0000
     15 H           4.5057   -1.8477    9.4000 H       1  UNL1        0.0000
     16 H           1.3221    0.3993    8.0162 H       1  UNL1        0.0000
@<TRIPOS>BOND
     1     8     3    1
     2    13     2    1
     3    12     5    1
     4     3    14    1
     5     3     7    1
     6     3     1    1
     7     2     1    1
     8     2     6    1
     9    11     5    1
    10     5     1    1
    11     5    16    1
    12     1     4    1
    13     4    15    1
    14     4     9    1
    15     4    10    1
