@<TRIPOS>MOLECULE
2
 36 38 0 0 0
SMALL
GASTEIGER

@<TRIPOS>ATOM
      1 SI         -6.2012    4.6334    2.8362 Si      1  UNL1        0.0000
      2 C          -7.8135    3.7860    2.6339 C.3     1  UNL1        0.0000
      3 H          -8.0629    3.0108    3.3572 H       1  UNL1        0.0000
      4 C          -5.1865    4.6196    1.2066 C.ar    1  UNL1        0.0000
      5 C          -5.4520    3.6266    0.2691 C.ar    1  UNL1        0.0000
      6 H          -6.2291    2.8984    0.4837 H       1  UNL1        0.0000
      7 C          -4.7058    3.5097   -0.8923 C.ar    1  UNL1        0.0000
      8 H          -4.9276    2.7226   -1.6006 H       1  UNL1        0.0000
      9 C          -3.6690    4.3946   -1.1389 C.ar    1  UNL1        0.0000
     10 H          -3.0785    4.3058   -2.0398 H       1  UNL1        0.0000
     11 C          -3.3901    5.3924   -0.2185 C.ar    1  UNL1        0.0000
     12 H          -2.5800    6.0847   -0.4041 H       1  UNL1        0.0000
     13 C          -4.1424    5.4993    0.9396 C.ar    1  UNL1        0.0000
     14 H          -3.9120    6.2787    1.6525 H       1  UNL1        0.0000
     15 C          -5.0275    3.8323    4.1041 C.ar    1  UNL1        0.0000
     16 C          -3.9981    2.9830    3.7182 C.ar    1  UNL1        0.0000
     17 H          -3.8384    2.7987    2.6652 H       1  UNL1        0.0000
     18 C          -3.1740    2.3797    4.6517 C.ar    1  UNL1        0.0000
     19 H          -2.3762    1.7254    4.3279 H       1  UNL1        0.0000
     20 C          -3.3705    2.6129    6.0021 C.ar    1  UNL1        0.0000
     21 H          -2.7287    2.1441    6.7348 H       1  UNL1        0.0000
     22 C          -4.3958    3.4511    6.4075 C.ar    1  UNL1        0.0000
     23 H          -4.5557    3.6374    7.4607 H       1  UNL1        0.0000
     24 C          -5.2119    4.0487    5.4646 C.ar    1  UNL1        0.0000
     25 H          -6.0079    4.7063    5.7836 H       1  UNL1        0.0000
     26 C          -6.2402    6.4668    3.4094 C.ar    1  UNL1        0.0000
     27 C          -5.1608    7.0984    4.0211 C.ar    1  UNL1        0.0000
     28 H          -4.2466    6.5436    4.1804 H       1  UNL1        0.0000
     29 C          -5.2434    8.4151    4.4401 C.ar    1  UNL1        0.0000
     30 H          -4.3917    8.8879    4.9093 H       1  UNL1        0.0000
     31 C          -6.4187    9.1267    4.2670 C.ar    1  UNL1        0.0000
     32 H          -6.4875   10.1527    4.5997 H       1  UNL1        0.0000
     33 C          -7.5080    8.5120    3.6714 C.ar    1  UNL1        0.0000
     34 H          -8.4337    9.0573    3.5438 H       1  UNL1        0.0000
     35 C          -7.4104    7.1978    3.2483 C.ar    1  UNL1        0.0000
     36 H          -8.2617    6.7050    2.7744 H       1  UNL1        0.0000
@<TRIPOS>BOND
     1    10     9    1
     2     8     7    1
     3     9     7   ar
     4     9    11   ar
     5     7     5   ar
     6    12    11    1
     7    11    13   ar
     8     5     6    1
     9     5     4   ar
    10    13     4   ar
    11    13    14    1
    12     4     1    1
    13     2     1    1
    14     2     3    1
    15    17    16    1
    16    36    35    1
    17     1    26    1
    18     1    15    1
    19    35    26   ar
    20    35    33   ar
    21    26    27   ar
    22    34    33    1
    23    33    31   ar
    24    16    15   ar
    25    16    18   ar
    26    27    28    1
    27    27    29   ar
    28    15    24   ar
    29    31    29   ar
    30    31    32    1
    31    19    18    1
    32    29    30    1
    33    18    20   ar
    34    24    25    1
    35    24    22   ar
    36    20    22   ar
    37    20    21    1
    38    22    23    1
