@<TRIPOS>MOLECULE
2
 16 15 0 0 0
SMALL
GASTEIGER

@<TRIPOS>ATOM
      1 SI          7.1826   11.5030    7.2427 Si      1  UNL1        0.0000
      2 C           7.1547   11.8610    5.3970 C.3     1  UNL1        0.0000
      3 H           8.1485   12.1953    5.0755 H       1  UNL1        0.0000
      4 H           6.4884   12.7158    5.2219 H       1  UNL1        0.0000
      5 C           8.2573    9.9394    7.5644 C.3     1  UNL1        0.0000
      6 H           8.2105    9.2413    6.7282 H       1  UNL1        0.0000
      7 H           7.9383    9.4122    8.4586 H       1  UNL1        0.0000
      8 H           9.2991   10.2102    7.7114 H       1  UNL1        0.0000
      9 C           5.3788   11.2126    7.8255 C.3     1  UNL1        0.0000
     10 H           4.9449   12.1355    8.1972 H       1  UNL1        0.0000
     11 H           5.3180   10.4823    8.6262 H       1  UNL1        0.0000
     12 H           4.7518   10.8638    7.0074 H       1  UNL1        0.0000
     13 C           7.9195   12.8732    8.3651 C.3     1  UNL1        0.0000
     14 H           8.9441   13.1016    8.0871 H       1  UNL1        0.0000
     15 H           7.9216   12.5806    9.4108 H       1  UNL1        0.0000
     16 H           7.3488   13.7930    8.2838 H       1  UNL1        0.0000
@<TRIPOS>BOND
     1     3     2    1
     2     4     2    1
     3     2     1    1
     4     6     5    1
     5    12     9    1
     6     1     5    1
     7     1     9    1
     8     1    13    1
     9     5     8    1
    10     5     7    1
    11     9    10    1
    12     9    11    1
    13    14    13    1
    14    16    13    1
    15    13    15    1
