@<TRIPOS>MOLECULE
2
 16 15 0 0 0
SMALL
GASTEIGER

@<TRIPOS>ATOM
      1 SI          6.7979   11.7559    0.9907 Si      1  UNL1        0.0000
      2 C           6.4749   10.0467    1.6980 C.3     1  UNL1        0.0000
      3 H           7.2115    9.3265    1.3253 H       1  UNL1        0.0000
      4 H           5.4964    9.6898    1.3560 H       1  UNL1        0.0000
      5 C           8.5429   12.3403    1.5358 C.3     1  UNL1        0.0000
      6 H           9.3175   11.7408    1.0673 H       1  UNL1        0.0000
      7 H           8.6630   12.2585    2.6140 H       1  UNL1        0.0000
      8 H           8.7225   13.3742    1.2590 H       1  UNL1        0.0000
      9 C           5.4883   12.9470    1.7306 C.3     1  UNL1        0.0000
     10 H           5.6241   13.9660    1.3821 H       1  UNL1        0.0000
     11 H           5.5362   12.9579    2.8193 H       1  UNL1        0.0000
     12 H           4.4860   12.6376    1.4484 H       1  UNL1        0.0000
     13 C           6.7223   11.9411   -0.9178 C.3     1  UNL1        0.0000
     14 H           7.4568   11.3058   -1.4032 H       1  UNL1        0.0000
     15 H           6.9129   12.9624   -1.2332 H       1  UNL1        0.0000
     16 H           5.7456   11.6577   -1.2973 H       1  UNL1        0.0000
@<TRIPOS>BOND
     1    14    13    1
     2    16    13    1
     3    15    13    1
     4    13     1    1
     5     1     5    1
     6     1     2    1
     7     1     9    1
     8     6     5    1
     9     8     5    1
    10     3     2    1
    11     4     2    1
    12    10     9    1
    13    12     9    1
    14     5     7    1
    15     9    11    1
