@<TRIPOS>MOLECULE
1
 4 3 0 0 0
SMALL
GASTEIGER

@<TRIPOS>ATOM
      1 C          17.0600   21.9022    4.0969 C.3     1  UNL1       -0.0091
      2 C          17.8068   21.1572    3.3321 C.3     1  UNL1       -0.0452
      3 H          18.8739   21.0474    3.4862 H       1  UNL1        0.0271
      4 H          17.4121   20.5982    2.4917 H       1  UNL1        0.0271
@<TRIPOS>BOND
     1     4     2    1
     2     2     3    1
     3     2     1    1
