@<TRIPOS>MOLECULE
2
 24 23 0 0 0
SMALL
GASTEIGER

@<TRIPOS>ATOM
      1 SI         13.2892   25.9027    8.0789 Si      1  UNL1        0.0000
      2 C          14.9266   24.0677    6.2601 C.1     1  UNL1        0.0000
      3 C          14.2730   24.8056    6.9836 C.1     1  UNL1        0.0000
      4 C          14.3128   27.4662    8.5093 C.3     1  UNL1        0.0000
      5 H          15.2557   27.1669    8.9712 H       1  UNL1        0.0000
      6 H          14.5782   27.9883    7.5883 H       1  UNL1        0.0000
      7 C          13.5904   28.4326    9.4390 C.3     1  UNL1        0.0000
      8 H          12.6601   28.7767    8.9910 H       1  UNL1        0.0000
      9 H          14.2060   29.3076    9.6506 H       1  UNL1        0.0000
     10 H          13.3547   27.9498   10.3855 H       1  UNL1        0.0000
     11 C          11.6670   26.4203    7.1978 C.3     1  UNL1        0.0000
     12 H          11.1608   25.5282    6.8230 H       1  UNL1        0.0000
     13 H          10.9796   26.8884    7.9053 H       1  UNL1        0.0000
     14 C          11.9076   27.3748    6.0358 C.3     1  UNL1        0.0000
     15 H          12.3319   28.3114    6.3914 H       1  UNL1        0.0000
     16 H          10.9806   27.6011    5.5084 H       1  UNL1        0.0000
     17 H          12.6079   26.9407    5.3245 H       1  UNL1        0.0000
     18 C          12.8485   25.0163    9.7195 C.3     1  UNL1        0.0000
     19 H          13.7280   24.9906   10.3657 H       1  UNL1        0.0000
     20 H          12.0814   25.5742   10.2594 H       1  UNL1        0.0000
     21 C          12.3593   23.5924    9.5029 C.3     1  UNL1        0.0000
     22 H          11.4666   23.5846    8.8803 H       1  UNL1        0.0000
     23 H          12.1214   23.1028   10.4475 H       1  UNL1        0.0000
     24 H          13.1279   23.0080    9.0002 H       1  UNL1        0.0000
@<TRIPOS>BOND
     1    17    14    1
     2    16    14    1
     3    14    15    1
     4    14    11    1
     5     2     3    3
     6    12    11    1
     7     3     1    1
     8    11    13    1
     9    11     1    1
    10     6     4    1
    11     1     4    1
    12     1    18    1
    13     4     5    1
    14     4     7    1
    15    22    21    1
    16     8     7    1
    17    24    21    1
    18     7     9    1
    19     7    10    1
    20    21    18    1
    21    21    23    1
    22    18    20    1
    23    18    19    1
