@<TRIPOS>MOLECULE
2
 15 14 0 0 0
SMALL
GASTEIGER

@<TRIPOS>ATOM
      1 SI          2.5685    4.8683   -1.4787 Si      1  UNL1        0.0000
      2 C           3.0281    2.4107    0.2928 C.1     1  UNL1        0.0000
      3 C           2.8008    3.3657   -0.4355 C.1     1  UNL1        0.0000
      4 C           1.0783    4.6594   -2.6542 C.3     1  UNL1        0.0000
      5 H           0.1604    4.5003   -2.0965 H       1  UNL1        0.0000
      6 H           1.2146    3.8048   -3.3099 H       1  UNL1        0.0000
      7 H           0.9372    5.5366   -3.2796 H       1  UNL1        0.0000
      8 C           4.1589    5.1518   -2.5006 C.3     1  UNL1        0.0000
      9 H           5.0209    5.2316   -1.8447 H       1  UNL1        0.0000
     10 H           4.1052    6.0617   -3.0918 H       1  UNL1        0.0000
     11 H           4.3397    4.3254   -3.1816 H       1  UNL1        0.0000
     12 C           2.2880    6.3848   -0.3506 C.3     1  UNL1        0.0000
     13 H           3.1309    6.5188    0.3205 H       1  UNL1        0.0000
     14 H           1.3986    6.2609    0.2600 H       1  UNL1        0.0000
     15 H           2.1706    7.3000   -0.9244 H       1  UNL1        0.0000
@<TRIPOS>BOND
     1     6     4    1
     2     7     4    1
     3    11     8    1
     4    10     8    1
     5     4     5    1
     6     4     1    1
     7     8     9    1
     8     8     1    1
     9     1     3    1
    10     1    12    1
    11    15    12    1
    12     3     2    3
    13    12    14    1
    14    12    13    1
