@<TRIPOS>MOLECULE
2
 16 15 0 0 0
SMALL
GASTEIGER

@<TRIPOS>ATOM
      1 SI         -0.5109    1.7610    2.4027 Si      1  UNL1        0.0000
      2 C           0.9952    2.8633    2.7098 C.3     1  UNL1        0.0000
      3 H           0.6974    3.8912    2.4304 H       1  UNL1        0.0000
      4 H           1.7614    2.5768    1.9653 H       1  UNL1        0.0000
      5 C          -0.1133   -0.0710    2.7940 C.3     1  UNL1        0.0000
      6 H           0.6312   -0.4654    2.1089 H       1  UNL1        0.0000
      7 H          -0.9977   -0.6946    2.7064 H       1  UNL1        0.0000
      8 H           0.2725   -0.1852    3.8028 H       1  UNL1        0.0000
      9 C          -1.1319    1.7965    0.5813 C.3     1  UNL1        0.0000
     10 H          -0.3751    1.4211   -0.1015 H       1  UNL1        0.0000
     11 H          -1.3834    2.8051    0.2656 H       1  UNL1        0.0000
     12 H          -2.0191    1.1841    0.4515 H       1  UNL1        0.0000
     13 C          -1.9856    2.3568    3.4794 C.3     1  UNL1        0.0000
     14 H          -2.6567    1.5383    3.7203 H       1  UNL1        0.0000
     15 H          -2.5709    3.1119    2.9631 H       1  UNL1        0.0000
     16 H          -1.6355    2.7947    4.4128 H       1  UNL1        0.0000
@<TRIPOS>BOND
     1    10     9    1
     2    11     9    1
     3    12     9    1
     4     9     1    1
     5     4     2    1
     6     6     5    1
     7     1     2    1
     8     1     5    1
     9     1    13    1
    10     3     2    1
    11     7     5    1
    12     5     8    1
    13    15    13    1
    14    13    14    1
    15    13    16    1
