@<TRIPOS>MOLECULE
2
 34 34 0 0 0
SMALL
GASTEIGER

@<TRIPOS>ATOM
      1 C           2.7563    9.9966    6.1829 C.3     1  UNL1        0.0000
      2 C           3.6843   11.0088    5.8162 C.3     1  UNL1        0.0000
      3 H           3.4247   11.9651    5.3798 H       1  UNL1        0.0000
      4 C           4.9854   10.6514    6.2629 C.3     1  UNL1        0.0000
      5 C           4.8475    9.4013    6.9334 C.2     1  UNL1        0.0000
      6 H           5.6318    8.9107    7.4969 H       1  UNL1        0.0000
      7 C           3.5029    9.0042    6.8792 C.2     1  UNL1        0.0000
      8 H           3.0773    8.1473    7.3891 H       1  UNL1        0.0000
      9 SI          0.8784   10.1390    6.0736 Si      1  UNL1        0.0000
     10 C           0.0546    9.0151    4.7534 C.3     1  UNL1        0.0000
     11 H          -0.3055    8.0946    5.1996 H       1  UNL1        0.0000
     12 H           0.7135    8.7503    3.9303 H       1  UNL1        0.0000
     13 H          -0.8082    9.5182    4.3276 H       1  UNL1        0.0000
     14 C           0.1474    9.7045    7.7823 C.3     1  UNL1        0.0000
     15 H           0.6006   10.2934    8.5735 H       1  UNL1        0.0000
     16 H           0.2955    8.6569    8.0227 H       1  UNL1        0.0000
     17 H          -0.9209    9.8939    7.8004 H       1  UNL1        0.0000
     18 C           0.4781   11.9593    5.6445 C.3     1  UNL1        0.0000
     19 H           0.9282   12.6446    6.3556 H       1  UNL1        0.0000
     20 H          -0.5941   12.1243    5.6687 H       1  UNL1        0.0000
     21 H           0.8245   12.2352    4.6527 H       1  UNL1        0.0000
     22 SI          6.4552   11.8250    6.3490 Si      1  UNL1        0.0000
     23 C           8.1207   10.8875    6.3760 C.3     1  UNL1        0.0000
     24 H           8.9075   11.5392    6.7425 H       1  UNL1        0.0000
     25 H           8.4214   10.5454    5.3909 H       1  UNL1        0.0000
     26 H           8.0875   10.0245    7.0333 H       1  UNL1        0.0000
     27 C           6.3646   12.9998    4.8424 C.3     1  UNL1        0.0000
     28 H           7.3361   13.4314    4.6250 H       1  UNL1        0.0000
     29 H           5.6848   13.8242    5.0336 H       1  UNL1        0.0000
     30 H           6.0154   12.4899    3.9463 H       1  UNL1        0.0000
     31 C           6.3045   12.8432    7.9594 C.3     1  UNL1        0.0000
     32 H           5.3437   13.3446    8.0234 H       1  UNL1        0.0000
     33 H           7.0774   13.6032    8.0126 H       1  UNL1        0.0000
     34 H           6.4025   12.2124    8.8373 H       1  UNL1        0.0000
@<TRIPOS>BOND
     1    12    10    1
     2    30    27    1
     3    13    10    1
     4    28    27    1
     5    21    18    1
     6    10    11    1
     7    10     9    1
     8    27    29    1
     9    27    22    1
    10     3     2    1
    11    25    23    1
    12    18    20    1
    13    18     9    1
    14    18    19    1
    15     2     1    1
    16     2     4    1
    17     9     1    1
    18     9    14    1
    19     1     7    1
    20     4    22    1
    21     4     5    1
    22    22    23    1
    23    22    31    1
    24    23    24    1
    25    23    26    1
    26     7     5    2
    27     7     8    1
    28     5     6    1
    29    14    17    1
    30    14    16    1
    31    14    15    1
    32    31    33    1
    33    31    32    1
    34    31    34    1
