@<TRIPOS>MOLECULE
1
 50 52 0 0 0
SMALL
GASTEIGER

@<TRIPOS>ATOM
      1 C           6.3332    9.2069    3.6511 C.3     1  UNL1        0.0000
      2 H           7.0606    8.8298    4.3936 H       1  UNL1        0.0000
      3 H           6.5985   10.2684    3.5003 H       1  UNL1        0.0000
      4 C           6.6077    8.5089    2.3362 C.2     1  UNL1        0.0000
      5 C           7.7896    9.0418    1.5549 C.3     1  UNL1        0.0000
      6 H           8.5419    8.2652    1.4134 H       1  UNL1        0.0000
      7 H           8.2582    9.8751    2.0727 H       1  UNL1        0.0000
      8 H           7.4839    9.3828    0.5663 H       1  UNL1        0.0000
      9 C           5.9027    7.4875    1.8278 C.2     1  UNL1        0.0000
     10 C           6.2276    6.8872    0.4865 C.3     1  UNL1        0.0000
     11 H           5.9388    7.5689   -0.3149 H       1  UNL1        0.0000
     12 H           5.6931    5.9516    0.3503 H       1  UNL1        0.0000
     13 H           7.2908    6.6890    0.3780 H       1  UNL1        0.0000
     14 C           4.6841    6.9066    2.5010 C.3     1  UNL1        0.0000
     15 H           3.8742    6.8923    1.7696 H       1  UNL1        0.0000
     16 H           4.4132    7.6228    3.2911 H       1  UNL1        0.0000
     17 B           4.9039    5.4230    3.2180 B       1  UNL1        0.0000
     18 C           4.6391    4.1781    2.1882 C.ar    1  UNL1        0.0000
     19 C           5.4256    3.0396    2.0208 C.ar    1  UNL1        0.0000
     20 C           5.1173    2.0297    1.1122 C.ar    1  UNL1        0.0000
     21 C           3.9600    2.1053    0.3493 C.ar    1  UNL1        0.0000
     22 C           3.1047    3.1816    0.5472 C.ar    1  UNL1        0.0000
     23 C           3.4511    4.1703    1.4582 C.ar    1  UNL1        0.0000
     24 F           6.5041    2.8326    2.7828 F       1  UNL1        0.0000
     25 F           5.9268    0.9740    0.9873 F       1  UNL1        0.0000
     26 F           3.6551    1.1466   -0.5288 F       1  UNL1        0.0000
     27 F           1.9483    3.2582   -0.1239 F       1  UNL1        0.0000
     28 F           2.5411    5.1482    1.6584 F       1  UNL1        0.0000
     29 C           6.3920    5.5990    3.8630 C.ar    1  UNL1        0.0000
     30 C           6.4954    6.3554    5.0195 C.ar    1  UNL1        0.0000
     31 C           7.6761    6.6730    5.6705 C.ar    1  UNL1        0.0000
     32 C           8.8783    6.2397    5.1303 C.ar    1  UNL1        0.0000
     33 C           8.8417    5.5686    3.9108 C.ar    1  UNL1        0.0000
     34 C           7.6266    5.2857    3.2900 C.ar    1  UNL1        0.0000
     35 F           5.3493    6.9817    5.5277 F       1  UNL1        0.0000
     36 F           7.6283    7.4456    6.7657 F       1  UNL1        0.0000
     37 F          10.0373    6.5179    5.7275 F       1  UNL1        0.0000
     38 F           9.9865    5.2298    3.3168 F       1  UNL1        0.0000
     39 F           7.6954    4.7688    2.0650 F       1  UNL1        0.0000
     40 C           3.8329    5.1002    4.4567 C.ar    1  UNL1        0.0000
     41 C           3.8660    3.8399    5.0649 C.ar    1  UNL1        0.0000
     42 C           2.9912    3.4295    6.0674 C.ar    1  UNL1        0.0000
     43 C           2.0223    4.3029    6.5490 C.ar    1  UNL1        0.0000
     44 C           1.9746    5.5779    6.0052 C.ar    1  UNL1        0.0000
     45 C           2.8540    5.9279    4.9881 C.ar    1  UNL1        0.0000
     46 F           4.7966    2.9524    4.7099 F       1  UNL1        0.0000
     47 F           3.0945    2.2043    6.5808 F       1  UNL1        0.0000
     48 F           1.1861    3.9411    7.5201 F       1  UNL1        0.0000
     49 F           1.1161    6.4905    6.4705 F       1  UNL1        0.0000
     50 F           2.7329    7.2582    4.5758 F       1  UNL1        0.0000
@<TRIPOS>BOND
     1    26    21    1
     2    11    10    1
     3    27    22    1
     4    21    22   ar
     5    21    20   ar
     6    12    10    1
     7    13    10    1
     8    10     9    1
     9    22    23   ar
    10     8     5    1
    11    25    20    1
    12    20    19   ar
    13     6     5    1
    14    23    28    1
    15    23    18   ar
    16     5     7    1
    17     5     4    1
    18    15    14    1
    19     9     4    2
    20     9    14    1
    21    19    18   ar
    22    19    24    1
    23    39    34    1
    24    18    17    1
    25     4     1    1
    26    14    17    1
    27    14    16    1
    28    17    29    1
    29    17    40    1
    30    34    29   ar
    31    34    33   ar
    32    38    33    1
    33     3     1    1
    34     1     2    1
    35    29    30   ar
    36    33    32   ar
    37    40    45   ar
    38    40    41   ar
    39    50    45    1
    40    46    41    1
    41    45    44   ar
    42    30    35    1
    43    30    31   ar
    44    41    42   ar
    45    32    31   ar
    46    32    37    1
    47    31    36    1
    48    44    49    1
    49    44    43   ar
    50    42    43   ar
    51    42    47    1
    52    43    48    1
