@<TRIPOS>MOLECULE
6
 8 7 0 0 0
SMALL
GASTEIGER

@<TRIPOS>ATOM
      1 C           4.2093   11.9389    2.1920 C.2     1  UNL1       -0.1026
      2 H           3.6374   12.5518    2.8732 H       1  UNL1        0.0532
      3 H           4.9384   12.4489    1.5864 H       1  UNL1        0.0532
      4 C           3.9886   10.6252    2.0823 C.2     1  UNL1       -0.0908
      5 H           4.5494   10.0642    1.3343 H       1  UNL1        0.0566
      6 C           3.0220    9.8647    2.8829 C.3     1  UNL1       -0.0316
      7 H           2.5725    9.0554    2.2901 H       1  UNL1        0.0310
      8 H           2.2340   10.5293    3.2597 H       1  UNL1        0.0310
@<TRIPOS>BOND
     1     5     4    1
     2     3     1    1
     3     4     1    2
     4     4     6    1
     5     1     2    1
     6     7     6    1
     7     6     8    1
