@<TRIPOS>MOLECULE
3
 38 39 0 0 0
SMALL
GASTEIGER

@<TRIPOS>ATOM
      1 P           8.3773    3.4073    8.6137 P.3     1  UNL1        0.0000
      2 SI          6.1327    1.0976    8.6314 Si      1  UNL1        0.0000
      3 C           7.3139    2.2632    9.5456 C.3     1  UNL1        0.0000
      4 H           8.0228    1.6771   10.1606 H       1  UNL1        0.0000
      5 C           4.3214    1.6240    8.9724 C.3     1  UNL1        0.0000
      6 H           4.1316    1.7636   10.0337 H       1  UNL1        0.0000
      7 H           3.6315    0.8669    8.6127 H       1  UNL1        0.0000
      8 H           4.0781    2.5522    8.4638 H       1  UNL1        0.0000
      9 C           6.3643   -0.6522    9.3854 C.3     1  UNL1        0.0000
     10 H           7.1913   -1.1855    8.9270 H       1  UNL1        0.0000
     11 H           5.4730   -1.2539    9.2439 H       1  UNL1        0.0000
     12 H           6.5614   -0.6009   10.4519 H       1  UNL1        0.0000
     13 C           6.2492    0.9244    6.7268 C.3     1  UNL1        0.0000
     14 H           5.7419    1.7476    6.2336 H       1  UNL1        0.0000
     15 H           5.7785    0.0029    6.3964 H       1  UNL1        0.0000
     16 H           7.2746    0.9158    6.3720 H       1  UNL1        0.0000
     17 C           9.5644    2.4357    7.5882 C.ar    1  UNL1        0.0000
     18 C           9.6297    1.0493    7.6415 C.ar    1  UNL1        0.0000
     19 H           8.9174    0.5059    8.2454 H       1  UNL1        0.0000
     20 C          10.5986    0.3651    6.9290 C.ar    1  UNL1        0.0000
     21 H          10.6318   -0.7147    6.9674 H       1  UNL1        0.0000
     22 C          11.5285    1.0593    6.1733 C.ar    1  UNL1        0.0000
     23 H          12.2844    0.5240    5.6174 H       1  UNL1        0.0000
     24 C          11.4959    2.4444    6.1455 C.ar    1  UNL1        0.0000
     25 H          12.2307    2.9907    5.5709 H       1  UNL1        0.0000
     26 C          10.5290    3.1280    6.8579 C.ar    1  UNL1        0.0000
     27 H          10.5132    4.2100    6.8496 H       1  UNL1        0.0000
     28 C           7.2448    4.0059    7.3046 C.ar    1  UNL1        0.0000
     29 C           7.5373    4.0006    5.9443 C.ar    1  UNL1        0.0000
     30 H           8.4629    3.5732    5.5879 H       1  UNL1        0.0000
     31 C           6.6389    4.5247    5.0319 C.ar    1  UNL1        0.0000
     32 H           6.8780    4.5059    3.9781 H       1  UNL1        0.0000
     33 C           5.4388    5.0656    5.4594 C.ar    1  UNL1        0.0000
     34 H           4.7393    5.4708    4.7432 H       1  UNL1        0.0000
     35 C           5.1422    5.0846    6.8126 C.ar    1  UNL1        0.0000
     36 H           4.2111    5.5084    7.1589 H       1  UNL1        0.0000
     37 C           6.0421    4.5682    7.7237 C.ar    1  UNL1        0.0000
     38 H           5.8144    4.5921    8.7903 H       1  UNL1        0.0000
@<TRIPOS>BOND
     1    32    31    1
     2    34    33    1
     3    31    33   ar
     4    31    29   ar
     5    33    35   ar
     6    25    24    1
     7    30    29    1
     8    23    22    1
     9    29    28   ar
    10    24    22   ar
    11    24    26   ar
    12    22    20   ar
    13    14    13    1
    14    16    13    1
    15    15    13    1
    16    13     2    1
    17    35    36    1
    18    35    37   ar
    19    27    26    1
    20    26    17   ar
    21    20    21    1
    22    20    18   ar
    23    28    37   ar
    24    28     1    1
    25    17    18   ar
    26    17     1    1
    27    18    19    1
    28    37    38    1
    29     8     5    1
    30     7     5    1
    31     1     3    1
    32     2     5    1
    33     2     9    1
    34     2     3    1
    35    10     9    1
    36     5     6    1
    37    11     9    1
    38     9    12    1
    39     3     4    1
