@<TRIPOS>MOLECULE
3
 38 39 0 0 0
SMALL
GASTEIGER

@<TRIPOS>ATOM
      1 P           1.3865    5.0382    2.3732 P.3     1  UNL1        0.0000
      2 SI          1.9457    7.2461    4.6698 Si      1  UNL1        0.0000
      3 C           1.3735    5.5274    4.1335 C.3     1  UNL1        0.0000
      4 H           0.3267    5.3585    4.4501 H       1  UNL1        0.0000
      5 C           3.8400    7.2481    4.9703 C.3     1  UNL1        0.0000
      6 H           4.2189    6.2526    5.1930 H       1  UNL1        0.0000
      7 H           4.0950    7.8940    5.8048 H       1  UNL1        0.0000
      8 H           4.3737    7.6138    4.0993 H       1  UNL1        0.0000
      9 C           1.1038    7.5843    6.3562 C.3     1  UNL1        0.0000
     10 H           0.0362    7.7508    6.2534 H       1  UNL1        0.0000
     11 H           1.5236    8.4682    6.8240 H       1  UNL1        0.0000
     12 H           1.2382    6.7525    7.0403 H       1  UNL1        0.0000
     13 C           1.5975    8.7686    3.5560 C.3     1  UNL1        0.0000
     14 H           1.8360    8.5567    2.5185 H       1  UNL1        0.0000
     15 H           2.2074    9.6127    3.8660 H       1  UNL1        0.0000
     16 H           0.5595    9.0848    3.5962 H       1  UNL1        0.0000
     17 C           0.0485    5.9213    1.4703 C.ar    1  UNL1        0.0000
     18 C          -0.1608    5.5546    0.1416 C.ar    1  UNL1        0.0000
     19 H           0.5203    4.8510   -0.3206 H       1  UNL1        0.0000
     20 C          -1.2176    6.0844   -0.5718 C.ar    1  UNL1        0.0000
     21 H          -1.3676    5.8045   -1.6051 H       1  UNL1        0.0000
     22 C          -2.0926    6.9688    0.0410 C.ar    1  UNL1        0.0000
     23 H          -2.9228    7.3803   -0.5148 H       1  UNL1        0.0000
     24 C          -1.9075    7.3139    1.3691 C.ar    1  UNL1        0.0000
     25 H          -2.5958    7.9946    1.8504 H       1  UNL1        0.0000
     26 C          -0.8473    6.7857    2.0843 C.ar    1  UNL1        0.0000
     27 H          -0.7076    7.0464    3.1237 H       1  UNL1        0.0000
     28 C           2.8471    5.9185    1.7153 C.ar    1  UNL1        0.0000
     29 C           2.8065    6.8692    0.7008 C.ar    1  UNL1        0.0000
     30 H           1.8603    7.1626    0.2692 H       1  UNL1        0.0000
     31 C           3.9750    7.4511    0.2409 C.ar    1  UNL1        0.0000
     32 H           3.9279    8.1955   -0.5413 H       1  UNL1        0.0000
     33 C           5.1986    7.0875    0.7763 C.ar    1  UNL1        0.0000
     34 H           6.1073    7.5451    0.4138 H       1  UNL1        0.0000
     35 C           5.2505    6.1305    1.7773 C.ar    1  UNL1        0.0000
     36 H           6.2016    5.8370    2.1977 H       1  UNL1        0.0000
     37 C           4.0847    5.5489    2.2367 C.ar    1  UNL1        0.0000
     38 H           4.1169    4.7966    3.0236 H       1  UNL1        0.0000
@<TRIPOS>BOND
     1    21    20    1
     2    20    22   ar
     3    20    18   ar
     4    32    31    1
     5    23    22    1
     6    19    18    1
     7    22    24   ar
     8    18    17   ar
     9    31    29   ar
    10    31    33   ar
    11    30    29    1
    12    34    33    1
    13    29    28   ar
    14    33    35   ar
    15    24    25    1
    16    24    26   ar
    17    17    26   ar
    18    17     1    1
    19    28    37   ar
    20    28     1    1
    21    35    36    1
    22    35    37   ar
    23    26    27    1
    24    37    38    1
    25     1     3    1
    26    14    13    1
    27    13    16    1
    28    13    15    1
    29    13     2    1
    30     8     5    1
    31     3     4    1
    32     3     2    1
    33     2     5    1
    34     2     9    1
    35     5     6    1
    36     5     7    1
    37    10     9    1
    38     9    11    1
    39     9    12    1
