@<TRIPOS>MOLECULE
1
 4 3 0 0 0
SMALL
GASTEIGER

@<TRIPOS>ATOM
      1 C           4.2598    2.8616    5.0288 C.3     1  UNL1       -0.0681
      2 H           4.2928    1.8642    5.5036 H       1  UNL1        0.0227
      3 H           4.8051    3.5152    5.7249 H       1  UNL1        0.0227
      4 H           4.9376    2.7723    4.1658 H       1  UNL1        0.0227
@<TRIPOS>BOND
     1     4     1    1
     2     1     2    1
     3     1     3    1
