@<TRIPOS>MOLECULE
3
 38 39 0 0 0
SMALL
GASTEIGER

@<TRIPOS>ATOM
      1 P           2.2540   16.1203   14.0889 P.3     1  UNL1        0.0000
      2 SI          1.8812   13.6014   12.0881 Si      1  UNL1        0.0000
      3 C           2.9434   14.9594   12.8600 C.3     1  UNL1        0.0000
      4 H           3.3498   15.6189   12.0701 H       1  UNL1        0.0000
      5 C           2.6622   13.2272   10.3795 C.3     1  UNL1        0.0000
      6 H           2.4962   14.0335    9.6719 H       1  UNL1        0.0000
      7 H           2.2344   12.3280    9.9496 H       1  UNL1        0.0000
      8 H           3.7347   13.0799   10.4559 H       1  UNL1        0.0000
      9 C           2.0010   12.0048   13.1452 C.3     1  UNL1        0.0000
     10 H           2.9167   11.9732   13.7331 H       1  UNL1        0.0000
     11 H           1.9812   11.1219   12.5139 H       1  UNL1        0.0000
     12 H           1.1667   11.9313   13.8352 H       1  UNL1        0.0000
     13 C           0.0073   13.8833   11.7939 C.3     1  UNL1        0.0000
     14 H          -0.4677   14.3014   12.6759 H       1  UNL1        0.0000
     15 H          -0.4872   12.9418   11.5711 H       1  UNL1        0.0000
     16 H          -0.1877   14.5578   10.9658 H       1  UNL1        0.0000
     17 C           1.0672   15.0765   15.0055 C.ar    1  UNL1        0.0000
     18 C           1.5985   13.9925   15.6993 C.ar    1  UNL1        0.0000
     19 H           2.6701   13.8091   15.6364 H       1  UNL1        0.0000
     20 C           0.7873   13.1593   16.4451 C.ar    1  UNL1        0.0000
     21 H           1.2153   12.3179   16.9708 H       1  UNL1        0.0000
     22 C          -0.5739   13.4069   16.5218 C.ar    1  UNL1        0.0000
     23 H          -1.2129   12.7592   17.1039 H       1  UNL1        0.0000
     24 C          -1.1099   14.4930   15.8513 C.ar    1  UNL1        0.0000
     25 H          -2.1704   14.6933   15.9099 H       1  UNL1        0.0000
     26 C          -0.2980   15.3260   15.1015 C.ar    1  UNL1        0.0000
     27 H          -0.7329   16.1691   14.5844 H       1  UNL1        0.0000
     28 C           1.0882   17.2814   13.2647 C.ar    1  UNL1        0.0000
     29 C           0.8396   17.2738   11.8994 C.ar    1  UNL1        0.0000
     30 H           1.2617   16.4902   11.2867 H       1  UNL1        0.0000
     31 C           0.0512   18.2577   11.3293 C.ar    1  UNL1        0.0000
     32 H          -0.1476   18.2400   10.2668 H       1  UNL1        0.0000
     33 C          -0.4792   19.2674   12.1145 C.ar    1  UNL1        0.0000
     34 H          -1.0925   20.0360   11.6668 H       1  UNL1        0.0000
     35 C          -0.2111   19.2982   13.4749 C.ar    1  UNL1        0.0000
     36 H          -0.6133   20.0931   14.0873 H       1  UNL1        0.0000
     37 C           0.5780   18.3187   14.0445 C.ar    1  UNL1        0.0000
     38 H           0.8095   18.3409   15.1023 H       1  UNL1        0.0000
@<TRIPOS>BOND
     1     6     5    1
     2     7     5    1
     3    32    31    1
     4     5     8    1
     5     5     2    1
     6    16    13    1
     7    30    29    1
     8    31    29   ar
     9    31    33   ar
    10    15    13    1
    11    34    33    1
    12    13     2    1
    13    13    14    1
    14    29    28   ar
    15     4     3    1
    16     2     3    1
    17     2     9    1
    18    33    35   ar
    19    11     9    1
    20     3     1    1
    21     9    10    1
    22     9    12    1
    23    28    37   ar
    24    28     1    1
    25    35    37   ar
    26    35    36    1
    27    37    38    1
    28     1    17    1
    29    27    26    1
    30    17    26   ar
    31    17    18   ar
    32    26    24   ar
    33    19    18    1
    34    18    20   ar
    35    24    25    1
    36    24    22   ar
    37    20    22   ar
    38    20    21    1
    39    22    23    1
