@<TRIPOS>MOLECULE
1
 19 18 0 0 0
SMALL
GASTEIGER

@<TRIPOS>ATOM
      1 C           5.4554   13.1745   15.4494 C.3     1  UNL1       -0.0531
      2 H           4.8064   13.0102   16.3307 H       1  UNL1        0.0265
      3 H           5.4484   12.1964   14.9327 H       1  UNL1        0.0265
      4 C           6.8869   13.3350   16.0120 C.3     1  UNL1       -0.0531
      5 H           6.9617   14.2368   16.6326 H       1  UNL1        0.0265
      6 H           7.6056   13.4491   15.1904 H       1  UNL1        0.0265
      7 C           7.3485   12.1352   16.8607 C.3     1  UNL1       -0.0531
      8 H           7.1941   11.2192   16.2865 H       1  UNL1        0.0265
      9 H           8.4212   12.2304   17.0551 H       1  UNL1        0.0265
     10 C           6.6204   12.0354   18.1998 C.3     1  UNL1       -0.0533
     11 H           5.5661   11.8062   18.0330 H       1  UNL1        0.0265
     12 H           6.6751   13.0075   18.6979 H       1  UNL1        0.0265
     13 C           7.2127   10.9775   19.1312 C.3     1  UNL1       -0.0559
     14 H           8.2790   11.1737   19.2690 H       1  UNL1        0.0263
     15 H           6.7329   11.0660   20.1096 H       1  UNL1        0.0263
     16 C           7.0232    9.5542   18.6188 C.3     1  UNL1       -0.0653
     17 H           7.5697    9.3983   17.6923 H       1  UNL1        0.0230
     18 H           5.9694    9.3534   18.4358 H       1  UNL1        0.0230
     19 H           7.3867    8.8364   19.3511 H       1  UNL1        0.0230
@<TRIPOS>BOND
     1     3     1    1
     2     6     4    1
     3     1     4    1
     4     1     2    1
     5     4     5    1
     6     4     7    1
     7     8     7    1
     8     7     9    1
     9     7    10    1
    10    17    16    1
    11    11    10    1
    12    10    12    1
    13    10    13    1
    14    18    16    1
    15    16    13    1
    16    16    19    1
    17    13    14    1
    18    13    15    1
