@<TRIPOS>MOLECULE
3
 38 39 0 0 0
SMALL
GASTEIGER

@<TRIPOS>ATOM
      1 P           4.5259   12.5506    8.5227 P.3     1  UNL1        0.0000
      2 SI          5.9868   10.8856    6.3773 Si      1  UNL1        0.0000
      3 C           5.6330   11.1234    8.2386 C.3     1  UNL1        0.0000
      4 H           5.0550   10.2305    8.5325 H       1  UNL1        0.0000
      5 C           5.6990   12.3605    5.1950 C.3     1  UNL1        0.0000
      6 H           4.8331   12.9458    5.4813 H       1  UNL1        0.0000
      7 H           5.5306   12.0016    4.1837 H       1  UNL1        0.0000
      8 H           6.5605   13.0182    5.1684 H       1  UNL1        0.0000
      9 C           4.9226    9.4496    5.6735 C.3     1  UNL1        0.0000
     10 H           4.9896    8.5566    6.2877 H       1  UNL1        0.0000
     11 H           5.2486    9.1796    4.6737 H       1  UNL1        0.0000
     12 H           3.8756    9.7305    5.6145 H       1  UNL1        0.0000
     13 C           7.8132   10.3889    6.0790 C.3     1  UNL1        0.0000
     14 H           8.5005   11.0612    6.5874 H       1  UNL1        0.0000
     15 H           8.0415   10.4227    5.0185 H       1  UNL1        0.0000
     16 H           8.0215    9.3815    6.4214 H       1  UNL1        0.0000
     17 C           3.0303   12.2685    7.4600 C.ar    1  UNL1        0.0000
     18 C           2.5667   13.3013    6.6555 C.ar    1  UNL1        0.0000
     19 H           3.0755   14.2570    6.6742 H       1  UNL1        0.0000
     20 C           1.4614   13.1190    5.8430 C.ar    1  UNL1        0.0000
     21 H           1.1091   13.9282    5.2188 H       1  UNL1        0.0000
     22 C           0.8064   11.8999    5.8317 C.ar    1  UNL1        0.0000
     23 H          -0.0560   11.7539    5.1974 H       1  UNL1        0.0000
     24 C           1.2546   10.8682    6.6416 C.ar    1  UNL1        0.0000
     25 H           0.7370    9.9188    6.6412 H       1  UNL1        0.0000
     26 C           2.3590   11.0520    7.4511 C.ar    1  UNL1        0.0000
     27 H           2.7011   10.2486    8.0897 H       1  UNL1        0.0000
     28 C           3.5880   12.1121   10.0497 C.ar    1  UNL1        0.0000
     29 C           3.8175   11.0045   10.8535 C.ar    1  UNL1        0.0000
     30 H           4.6024   10.3013   10.6003 H       1  UNL1        0.0000
     31 C           3.0537   10.7888   11.9886 C.ar    1  UNL1        0.0000
     32 H           3.2421    9.9184   12.6026 H       1  UNL1        0.0000
     33 C           2.0531   11.6772   12.3384 C.ar    1  UNL1        0.0000
     34 H           1.4612   11.5075   13.2261 H       1  UNL1        0.0000
     35 C           1.8138   12.7861   11.5421 C.ar    1  UNL1        0.0000
     36 H           1.0330   13.4844   11.8079 H       1  UNL1        0.0000
     37 C           2.5745   12.9985   10.4107 C.ar    1  UNL1        0.0000
     38 H           2.3840   13.8613    9.7852 H       1  UNL1        0.0000
@<TRIPOS>BOND
     1     7     5    1
     2    11     9    1
     3    15    13    1
     4     8     5    1
     5     5     6    1
     6     5     2    1
     7    23    22    1
     8    21    20    1
     9    12     9    1
    10     9    10    1
    11     9     2    1
    12    22    20   ar
    13    22    24   ar
    14    20    18   ar
    15    13     2    1
    16    13    16    1
    17    13    14    1
    18     2     3    1
    19    25    24    1
    20    24    26   ar
    21    18    19    1
    22    18    17   ar
    23    26    17   ar
    24    26    27    1
    25    17     1    1
    26     3     1    1
    27     3     4    1
    28     1    28    1
    29    38    37    1
    30    28    37   ar
    31    28    29   ar
    32    37    35   ar
    33    30    29    1
    34    29    31   ar
    35    35    36    1
    36    35    33   ar
    37    31    33   ar
    38    31    32    1
    39    33    34    1
