@<TRIPOS>MOLECULE
2
 15 14 0 0 0
SMALL
GASTEIGER

@<TRIPOS>ATOM
      1 SI         -3.4924    5.1639   11.7137 Si      1  UNL1        0.0000
      2 C          -0.8850    3.5761   11.4961 C.1     1  UNL1        0.0000
      3 C          -1.9276    4.1940   11.5446 C.1     1  UNL1        0.0000
      4 C          -4.9703    3.9557   11.6085 C.3     1  UNL1        0.0000
      5 H          -4.9754    3.4185   10.6644 H       1  UNL1        0.0000
      6 H          -5.9182    4.4794   11.6939 H       1  UNL1        0.0000
      7 H          -4.9296    3.2186   12.4052 H       1  UNL1        0.0000
      8 C          -3.5007    6.0510   13.4037 C.3     1  UNL1        0.0000
      9 H          -2.6980    6.7800   13.4645 H       1  UNL1        0.0000
     10 H          -3.3623    5.3442   14.2165 H       1  UNL1        0.0000
     11 H          -4.4365    6.5754   13.5775 H       1  UNL1        0.0000
     12 C          -3.6146    6.4557   10.3138 C.3     1  UNL1        0.0000
     13 H          -3.8154    5.9850    9.3565 H       1  UNL1        0.0000
     14 H          -2.6853    7.0084   10.2180 H       1  UNL1        0.0000
     15 H          -4.4092    7.1727   10.5016 H       1  UNL1        0.0000
@<TRIPOS>BOND
     1    13    12    1
     2    14    12    1
     3    12    15    1
     4    12     1    1
     5     5     4    1
     6     2     3    3
     7     3     1    1
     8     4     6    1
     9     4     1    1
    10     4     7    1
    11     1     8    1
    12     8     9    1
    13     8    11    1
    14     8    10    1
