@<TRIPOS>MOLECULE
2
 18 17 0 0 0
SMALL
GASTEIGER

@<TRIPOS>ATOM
      1 N          -0.0187    2.2438    8.4508 N.3     1  UNL1       -0.2272
      2 C           0.2840    2.2290    9.5741 C.3     1  UNL1        0.1066
      3 C          -0.4751    2.4800    7.1566 C.3     1  UNL1        0.0197
      4 H          -0.9039    1.5500    6.7665 H       1  UNL1        0.0446
      5 H           0.3864    2.7574    6.5398 H       1  UNL1        0.0446
      6 C          -1.5314    3.6085    7.1205 C.3     1  UNL1       -0.0236
      7 C          -1.9883    3.7633    5.6683 C.3     1  UNL1       -0.0589
      8 H          -2.4537    2.8484    5.3063 H       1  UNL1        0.0235
      9 H          -1.1476    4.0032    5.0208 H       1  UNL1        0.0235
     10 H          -2.7149    4.5682    5.5930 H       1  UNL1        0.0235
     11 C          -0.9068    4.9105    7.6188 C.3     1  UNL1       -0.0589
     12 H          -0.0755    5.2088    6.9837 H       1  UNL1        0.0235
     13 H          -0.5388    4.7998    8.6363 H       1  UNL1        0.0235
     14 H          -1.6467    5.7060    7.6121 H       1  UNL1        0.0235
     15 C          -2.7182    3.2281    8.0060 C.3     1  UNL1       -0.0589
     16 H          -3.1197    2.2557    7.7252 H       1  UNL1        0.0235
     17 H          -3.5099    3.9650    7.9009 H       1  UNL1        0.0235
     18 H          -2.4181    3.2020    9.0510 H       1  UNL1        0.0235
@<TRIPOS>BOND
     1     9     7    1
     2     8     7    1
     3    10     7    1
     4     7     6    1
     5     5     3    1
     6     4     3    1
     7    12    11    1
     8     6     3    1
     9     6    11    1
    10     6    15    1
    11     3     1    1
    12    14    11    1
    13    11    13    1
    14    16    15    1
    15    17    15    1
    16    15    18    1
    17     1     2    1
