@<TRIPOS>MOLECULE
1
 4 3 0 0 0
SMALL
GASTEIGER

@<TRIPOS>ATOM
      1 C           9.1106    2.2325    2.8782 C.3     1  UNL1       -0.0681
      2 H          10.1788    2.5178    2.8460 H       1  UNL1        0.0227
      3 H           8.9971    1.4129    2.1503 H       1  UNL1        0.0227
      4 H           8.9594    1.7690    3.8634 H       1  UNL1        0.0227
@<TRIPOS>BOND
     1     3     1    1
     2     2     1    1
     3     1     4    1
