@<TRIPOS>MOLECULE
1
 4 3 0 0 0
SMALL
GASTEIGER

@<TRIPOS>ATOM
      1 C           8.1587    4.5982    4.4485 C.3     1  UNL1       -0.0681
      2 H           9.1518    5.0765    4.5479 H       1  UNL1        0.0227
      3 H           8.1292    3.8206    5.2246 H       1  UNL1        0.0227
      4 H           7.4289    5.3579    4.7699 H       1  UNL1        0.0227
@<TRIPOS>BOND
     1     1     2    1
     2     1     4    1
     3     1     3    1
