@<TRIPOS>MOLECULE
1
 4 3 0 0 0
SMALL
GASTEIGER

@<TRIPOS>ATOM
      1 C           5.3883    1.6243    1.8366 C.3     1  UNL1       -0.0681
      2 H           4.6903    2.2701    1.2777 H       1  UNL1        0.0227
      3 H           5.9625    2.3238    2.4619 H       1  UNL1        0.0227
      4 H           6.1164    1.2724    1.0869 H       1  UNL1        0.0227
@<TRIPOS>BOND
     1     4     1    1
     2     2     1    1
     3     1     3    1
