@<TRIPOS>MOLECULE
1
 4 3 0 0 0
SMALL
GASTEIGER

@<TRIPOS>ATOM
      1 C           5.3887   -1.6240    1.8365 C.3     1  UNL1       -0.0681
      2 H           4.6905   -2.2699    1.2780 H       1  UNL1        0.0227
      3 H           5.9635   -2.3235    2.4615 H       1  UNL1        0.0227
      4 H           6.1162   -1.2719    1.0863 H       1  UNL1        0.0227
@<TRIPOS>BOND
     1     4     1    1
     2     2     1    1
     3     1     3    1
