@<TRIPOS>MOLECULE
1
 16 15 0 0 0
SMALL
GASTEIGER

@<TRIPOS>ATOM
      1 C           4.8957    5.9494    3.5640 C.3     1  UNL1       -0.0476
      2 C           5.8823    6.9615    4.1930 C.3     1  UNL1       -0.0377
      3 C           7.3282    6.4646    4.1063 C.3     1  UNL1       -0.0601
      4 C           5.5393    7.1837    5.6731 C.3     1  UNL1       -0.0601
      5 C           5.7906    8.3056    3.4533 C.3     1  UNL1       -0.0601
      6 H           5.2964    5.6892    2.5607 H       1  UNL1        0.0271
      7 H           3.9737    6.5194    3.3562 H       1  UNL1        0.0271
      8 H           7.6157    6.2791    3.0744 H       1  UNL1        0.0235
      9 H           7.4456    5.5479    4.6793 H       1  UNL1        0.0235
     10 H           8.0079    7.2092    4.5167 H       1  UNL1        0.0235
     11 H           4.6300    7.7697    5.7809 H       1  UNL1        0.0235
     12 H           6.3444    7.7188    6.1733 H       1  UNL1        0.0235
     13 H           5.4069    6.2111    6.1626 H       1  UNL1        0.0235
     14 H           4.7825    8.7119    3.5107 H       1  UNL1        0.0235
     15 H           6.0504    8.1831    2.4038 H       1  UNL1        0.0235
     16 H           6.4743    9.0311    3.8899 H       1  UNL1        0.0235
@<TRIPOS>BOND
     1    15     5    1
     2     6     1    1
     3     8     3    1
     4     7     1    1
     5     5    14    1
     6     5    16    1
     7     5     2    1
     8     1     2    1
     9     3     2    1
    10     3    10    1
    11     3     9    1
    12     2     4    1
    13     4    11    1
    14     4    13    1
    15     4    12    1
