@<TRIPOS>MOLECULE
1
 16 15 0 0 0
SMALL
GASTEIGER

@<TRIPOS>ATOM
      1 C           3.2233    3.5351    6.3053 C.3     1  UNL1       -0.0476
      2 C           3.0035    2.0202    6.5452 C.3     1  UNL1       -0.0377
      3 C           4.2373    1.2065    6.1246 C.3     1  UNL1       -0.0601
      4 C           2.7281    1.7543    8.0334 C.3     1  UNL1       -0.0601
      5 C           1.7979    1.5328    5.7322 C.3     1  UNL1       -0.0601
      6 H           3.7679    3.9143    7.1945 H       1  UNL1        0.0271
      7 H           2.2193    3.9900    6.3651 H       1  UNL1        0.0271
      8 H           5.1155    1.5210    6.6885 H       1  UNL1        0.0235
      9 H           4.4364    1.3349    5.0514 H       1  UNL1        0.0235
     10 H           4.0713    0.1469    6.3210 H       1  UNL1        0.0235
     11 H           3.5946    2.0217    8.6346 H       1  UNL1        0.0235
     12 H           2.5071    0.7020    8.2032 H       1  UNL1        0.0235
     13 H           1.8773    2.3399    8.3758 H       1  UNL1        0.0235
     14 H           0.8861    2.0231    6.0685 H       1  UNL1        0.0235
     15 H           1.6646    0.4585    5.8512 H       1  UNL1        0.0235
     16 H           1.9312    1.7413    4.6705 H       1  UNL1        0.0235
@<TRIPOS>BOND
     1    16     5    1
     2     9     3    1
     3     5    15    1
     4     5    14    1
     5     5     2    1
     6     3    10    1
     7     3     2    1
     8     3     8    1
     9     1     7    1
    10     1     2    1
    11     1     6    1
    12     2     4    1
    13     4    12    1
    14     4    13    1
    15     4    11    1
