@<TRIPOS>MOLECULE
2
 16 15 0 0 0
SMALL
GASTEIGER

@<TRIPOS>ATOM
      1 SI          6.2320    2.1812    3.5560 Si      1  UNL1        0.0000
      2 C           4.7311    3.2336    3.0623 C.3     1  UNL1        0.0000
      3 C           5.6489    0.6719    4.5735 C.3     1  UNL1        0.0000
      4 C           7.2654    1.5326    2.0842 C.3     1  UNL1        0.0000
      5 C           7.3902    3.2448    4.6539 C.3     1  UNL1        0.0000
      6 H           5.0248    4.2844    2.9977 H       1  UNL1        0.0000
      7 H           4.0235    3.1645    3.8906 H       1  UNL1        0.0000
      8 H           5.0018    0.9644    5.3947 H       1  UNL1        0.0000
      9 H           5.0962   -0.0200    3.9470 H       1  UNL1        0.0000
     10 H           6.4909    0.1321    4.9958 H       1  UNL1        0.0000
     11 H           8.0844    0.9127    2.4371 H       1  UNL1        0.0000
     12 H           6.6519    0.9216    1.4303 H       1  UNL1        0.0000
     13 H           7.6983    2.3319    1.4910 H       1  UNL1        0.0000
     14 H           8.2421    2.6658    4.9948 H       1  UNL1        0.0000
     15 H           7.7751    4.1049    4.1150 H       1  UNL1        0.0000
     16 H           6.8732    3.6145    5.5334 H       1  UNL1        0.0000
@<TRIPOS>BOND
     1    12     4    1
     2    13     4    1
     3     4    11    1
     4     4     1    1
     5     6     2    1
     6     2     1    1
     7     2     7    1
     8     1     3    1
     9     1     5    1
    10     9     3    1
    11    15     5    1
    12     3    10    1
    13     3     8    1
    14     5    14    1
    15     5    16    1
