@<TRIPOS>MOLECULE
2
 22 22 0 0 0
SMALL
GASTEIGER

@<TRIPOS>ATOM
      1 N          -2.1864    0.2606   -2.1859 N.pl3   1  UNL1       -0.2364
      2 C          -1.3533    0.1157   -1.3657 C.3     1  UNL1        0.1354
      3 C          -3.1591    0.5572   -3.0847 C.ar    1  UNL1        0.0545
      4 C          -3.6164   -0.4375   -3.9592 C.ar    1  UNL1       -0.0274
      5 C          -4.6093   -0.1126   -4.8662 C.ar    1  UNL1       -0.0541
      6 C          -5.1529    1.1645   -4.9250 C.ar    1  UNL1       -0.0498
      7 C          -4.6813    2.1312   -4.0471 C.ar    1  UNL1       -0.0541
      8 C          -3.6894    1.8551   -3.1213 C.ar    1  UNL1       -0.0274
      9 C          -3.0207   -1.8098   -3.9149 C.3     1  UNL1       -0.0379
     10 C          -6.2418    1.4797   -5.9040 C.3     1  UNL1       -0.0397
     11 C          -3.1853    2.9039   -2.1820 C.3     1  UNL1       -0.0379
     12 H          -4.9686   -0.8728   -5.5453 H       1  UNL1        0.0623
     13 H          -5.0962    3.1284   -4.0839 H       1  UNL1        0.0623
     14 H          -2.9212   -2.1528   -2.8864 H       1  UNL1        0.0278
     15 H          -3.6352   -2.5151   -4.4685 H       1  UNL1        0.0278
     16 H          -2.0244   -1.7982   -4.3578 H       1  UNL1        0.0278
     17 H          -6.0618    0.9829   -6.8551 H       1  UNL1        0.0278
     18 H          -7.2005    1.1293   -5.5202 H       1  UNL1        0.0278
     19 H          -6.3153    2.5511   -6.0730 H       1  UNL1        0.0278
     20 H          -2.1169    3.0672   -2.3197 H       1  UNL1        0.0278
     21 H          -3.7031    3.8458   -2.3409 H       1  UNL1        0.0278
     22 H          -3.3280    2.5989   -1.1461 H       1  UNL1        0.0278
@<TRIPOS>BOND
     1    17    10    1
     2    19    10    1
     3    10    18    1
     4    10     6    1
     5    12     5    1
     6     6     5   ar
     7     6     7   ar
     8     5     4   ar
     9    15     9    1
    10    16     9    1
    11    13     7    1
    12     7     8   ar
    13     4     9    1
    14     4     3   ar
    15     9    14    1
    16     8     3   ar
    17     8    11    1
    18     3     1    1
    19    21    11    1
    20    20    11    1
    21     1     2    1
    22    11    22    1
