@<TRIPOS>MOLECULE
2
 31 31 0 0 0
SMALL
GASTEIGER

@<TRIPOS>ATOM
      1 N           2.7128    1.2532    2.0102 N.pl3   1  UNL1       -0.2364
      2 C           3.4826    0.7510    1.2714 C.3     1  UNL1        0.1354
      3 C           1.7999    1.9121    2.7713 C.ar    1  UNL1        0.0555
      4 C           1.1573    3.0479    2.2501 C.ar    1  UNL1       -0.0220
      5 C           0.2292    3.6946    3.0513 C.ar    1  UNL1       -0.0565
      6 C          -0.0593    3.2407    4.3250 C.ar    1  UNL1       -0.0611
      7 C           0.5839    2.1230    4.8232 C.ar    1  UNL1       -0.0565
      8 C           1.5201    1.4403    4.0632 C.ar    1  UNL1       -0.0220
      9 C           1.4583    3.5641    0.8646 C.3     1  UNL1       -0.0197
     10 C           0.2028    3.5434   -0.0093 C.3     1  UNL1       -0.0586
     11 C           2.0388    4.9783    0.9285 C.3     1  UNL1       -0.0586
     12 C           2.2201    0.2239    4.6189 C.3     1  UNL1       -0.0197
     13 C           1.2111   -0.8781    4.9497 C.3     1  UNL1       -0.0586
     14 C           3.0421    0.5963    5.8551 C.3     1  UNL1       -0.0586
     15 H          -0.2776    4.5691    2.6734 H       1  UNL1        0.0621
     16 H          -0.7865    3.7601    4.9311 H       1  UNL1        0.0618
     17 H           0.3530    1.7779    5.8194 H       1  UNL1        0.0621
     18 H           2.2049    2.9174    0.3929 H       1  UNL1        0.0344
     19 H           0.4650    3.8188   -1.0277 H       1  UNL1        0.0235
     20 H          -0.5427    4.2436    0.3597 H       1  UNL1        0.0235
     21 H          -0.2368    2.5490   -0.0238 H       1  UNL1        0.0235
     22 H           2.3406    5.2928   -0.0674 H       1  UNL1        0.0235
     23 H           2.9110    5.0047    1.5771 H       1  UNL1        0.0235
     24 H           1.3055    5.6850    1.3098 H       1  UNL1        0.0235
     25 H           2.9065   -0.1612    3.8570 H       1  UNL1        0.0344
     26 H           0.6242   -1.1329    4.0698 H       1  UNL1        0.0235
     27 H           0.5309   -0.5609    5.7363 H       1  UNL1        0.0235
     28 H           1.7319   -1.7715    5.2879 H       1  UNL1        0.0235
     29 H           2.3996    0.9509    6.6574 H       1  UNL1        0.0235
     30 H           3.7562    1.3809    5.6145 H       1  UNL1        0.0235
     31 H           3.5909   -0.2717    6.2147 H       1  UNL1        0.0235
@<TRIPOS>BOND
     1    19    10    1
     2    22    11    1
     3    21    10    1
     4    10    20    1
     5    10     9    1
     6    18     9    1
     7     9    11    1
     8     9     4    1
     9    11    24    1
    10    11    23    1
    11     2     1    1
    12     1     3    1
    13     4     3   ar
    14     4     5   ar
    15    15     5    1
    16     3     8   ar
    17     5     6   ar
    18    25    12    1
    19     8    12    1
    20     8     7   ar
    21    26    13    1
    22     6     7   ar
    23     6    16    1
    24    12    13    1
    25    12    14    1
    26     7    17    1
    27    13    28    1
    28    13    27    1
    29    30    14    1
    30    14    31    1
    31    14    29    1
