@<TRIPOS>MOLECULE
2
 27 29 0 0 0
SMALL
GASTEIGER

@<TRIPOS>ATOM
      1 N           3.4849   -1.7699   -2.1972 N.3     1  UNL1       -0.2211
      2 C           4.0292   -1.0789   -1.4165 C.3     1  UNL1        0.1073
      3 C           2.8032   -2.8716   -2.7535 C.3     1  UNL1        0.0382
      4 C           3.8193   -3.9462   -3.1553 C.3     1  UNL1       -0.0303
      5 C           1.8450   -3.4402   -1.6988 C.3     1  UNL1       -0.0303
      6 C           2.0095   -2.4251   -3.9851 C.3     1  UNL1       -0.0303
      7 C           3.0738   -5.1452   -3.7380 C.3     1  UNL1       -0.0388
      8 C           2.2802   -4.7058   -4.9686 C.3     1  UNL1       -0.0472
      9 C           1.2708   -3.6311   -4.5654 C.3     1  UNL1       -0.0388
     10 C           0.3139   -4.2005   -3.5181 C.3     1  UNL1       -0.0472
     11 C           1.1084   -4.6409   -2.2885 C.3     1  UNL1       -0.0388
     12 C           2.1229   -5.7124   -2.6849 C.3     1  UNL1       -0.0472
     13 H           4.5137   -3.5369   -3.8928 H       1  UNL1        0.0286
     14 H           4.3927   -4.2437   -2.2750 H       1  UNL1        0.0286
     15 H           2.4140   -3.7354   -0.8144 H       1  UNL1        0.0286
     16 H           1.1341   -2.6660   -1.3990 H       1  UNL1        0.0286
     17 H           1.2990   -1.6457   -3.6997 H       1  UNL1        0.0286
     18 H           2.6906   -2.0033   -4.7279 H       1  UNL1        0.0286
     19 H           3.8005   -5.9127   -4.0260 H       1  UNL1        0.0302
     20 H           1.7567   -5.5623   -5.3986 H       1  UNL1        0.0271
     21 H           2.9592   -4.3129   -5.7289 H       1  UNL1        0.0271
     22 H           0.7022   -3.3139   -5.4467 H       1  UNL1        0.0302
     23 H          -0.2266   -5.0525   -3.9359 H       1  UNL1        0.0271
     24 H          -0.4217   -3.4442   -3.2349 H       1  UNL1        0.0271
     25 H           0.4247   -5.0458   -1.5347 H       1  UNL1        0.0302
     26 H           1.6039   -6.5862   -3.0849 H       1  UNL1        0.0271
     27 H           2.6891   -6.0263   -1.8053 H       1  UNL1        0.0271
@<TRIPOS>BOND
     1    21     8    1
     2    22     9    1
     3    20     8    1
     4     8     9    1
     5     8     7    1
     6    18     6    1
     7     9     6    1
     8     9    10    1
     9    19     7    1
    10     6    17    1
    11     6     3    1
    12    23    10    1
    13    13     4    1
    14     7     4    1
    15     7    12    1
    16    10    24    1
    17    10    11    1
    18     4     3    1
    19     4    14    1
    20    26    12    1
    21     3     1    1
    22     3     5    1
    23    12    11    1
    24    12    27    1
    25    11     5    1
    26    11    25    1
    27     1     2    1
    28     5    16    1
    29     5    15    1
