@<TRIPOS>MOLECULE
2
 15 14 0 0 0
SMALL
GASTEIGER

@<TRIPOS>ATOM
      1 N           9.9424    1.8343    7.2031 N.3     1  UNL1       -0.2219
      2 C           9.6756    2.6726    6.4266 C.3     1  UNL1        0.1072
      3 C          10.1384    1.0248    8.3409 C.3     1  UNL1        0.0290
      4 C          11.6411    0.7666    8.4902 C.3     1  UNL1       -0.0458
      5 C           9.5903    1.7754    9.5610 C.3     1  UNL1       -0.0458
      6 C           9.3835   -0.2910    8.1265 C.3     1  UNL1       -0.0458
      7 H          12.0313    0.2756    7.6014 H       1  UNL1        0.0248
      8 H          12.1730    1.7056    8.6267 H       1  UNL1        0.0248
      9 H          11.8263    0.1314    9.3524 H       1  UNL1        0.0248
     10 H          10.1077    2.7239    9.6885 H       1  UNL1        0.0248
     11 H           8.5314    1.9894    9.4324 H       1  UNL1        0.0248
     12 H           9.7241    1.1757   10.4577 H       1  UNL1        0.0248
     13 H           9.7472   -0.7952    7.2337 H       1  UNL1        0.0248
     14 H           9.5252   -0.9459    8.9822 H       1  UNL1        0.0248
     15 H           8.3196   -0.0996    8.0048 H       1  UNL1        0.0248
@<TRIPOS>BOND
     1     2     1    1
     2     1     3    1
     3    13     6    1
     4     7     4    1
     5    15     6    1
     6     6     3    1
     7     6    14    1
     8     3     4    1
     9     3     5    1
    10     4     8    1
    11     4     9    1
    12    11     5    1
    13     5    10    1
    14     5    12    1
