@<TRIPOS>MOLECULE
2
 15 14 0 0 0
SMALL
GASTEIGER

@<TRIPOS>ATOM
      1 N           8.4317    6.4303    3.3502 N.3     1  UNL1       -0.2219
      2 C           8.6997    5.5922    4.1265 C.3     1  UNL1        0.1072
      3 C           8.2362    7.2397    2.2122 C.3     1  UNL1        0.0290
      4 C           6.7336    7.4983    2.0624 C.3     1  UNL1       -0.0458
      5 C           8.7844    6.4887    0.9924 C.3     1  UNL1       -0.0458
      6 C           8.9912    8.5554    2.4267 C.3     1  UNL1       -0.0458
      7 H           6.3432    7.9895    2.9510 H       1  UNL1        0.0248
      8 H           6.2014    6.5594    1.9258 H       1  UNL1        0.0248
      9 H           6.5489    8.1334    1.2000 H       1  UNL1        0.0248
     10 H           8.2671    5.5401    0.8652 H       1  UNL1        0.0248
     11 H           9.8433    6.2748    1.1212 H       1  UNL1        0.0248
     12 H           8.6507    7.0881    0.0955 H       1  UNL1        0.0248
     13 H           8.6277    9.0596    3.3195 H       1  UNL1        0.0248
     14 H           8.8498    9.2104    1.5710 H       1  UNL1        0.0248
     15 H          10.0552    8.3638    2.5484 H       1  UNL1        0.0248
@<TRIPOS>BOND
     1    12     5    1
     2    10     5    1
     3     5    11    1
     4     5     3    1
     5     9     4    1
     6    14     6    1
     7     8     4    1
     8     4     3    1
     9     4     7    1
    10     3     6    1
    11     3     1    1
    12     6    15    1
    13     6    13    1
    14     1     2    1
