@<TRIPOS>MOLECULE
2
 22 22 0 0 0
SMALL
GASTEIGER

@<TRIPOS>ATOM
      1 N           2.1864   -0.2606    2.1858 N.pl3   1  UNL1       -0.2364
      2 C           1.3538   -0.1155    1.3652 C.3     1  UNL1        0.1354
      3 C           3.1591   -0.5573    3.0846 C.ar    1  UNL1        0.0545
      4 C           3.6165    0.4374    3.9591 C.ar    1  UNL1       -0.0274
      5 C           4.6094    0.1123    4.8661 C.ar    1  UNL1       -0.0541
      6 C           5.1527   -1.1649    4.9249 C.ar    1  UNL1       -0.0498
      7 C           4.6811   -2.1315    4.0470 C.ar    1  UNL1       -0.0541
      8 C           3.6893   -1.8553    3.1212 C.ar    1  UNL1       -0.0274
      9 C           3.0210    1.8097    3.9148 C.3     1  UNL1       -0.0379
     10 C           6.2416   -1.4802    5.9040 C.3     1  UNL1       -0.0397
     11 C           3.1851   -2.9040    2.1819 C.3     1  UNL1       -0.0379
     12 H           4.9687    0.8725    5.5452 H       1  UNL1        0.0623
     13 H           5.0959   -3.1287    4.0838 H       1  UNL1        0.0623
     14 H           2.9215    2.1527    2.8862 H       1  UNL1        0.0278
     15 H           3.6356    2.5150    4.4683 H       1  UNL1        0.0278
     16 H           2.0247    1.7983    4.3577 H       1  UNL1        0.0278
     17 H           6.0616   -0.9835    6.8551 H       1  UNL1        0.0278
     18 H           7.2004   -1.1299    5.5203 H       1  UNL1        0.0278
     19 H           6.3150   -2.5516    6.0729 H       1  UNL1        0.0278
     20 H           2.1167   -3.0672    2.3195 H       1  UNL1        0.0278
     21 H           3.7029   -3.8459    2.3407 H       1  UNL1        0.0278
     22 H           3.3278   -2.5990    1.1460 H       1  UNL1        0.0278
@<TRIPOS>BOND
     1    22    11    1
     2     2     1    1
     3    11    20    1
     4    11    21    1
     5    11     8    1
     6     1     3    1
     7    14     9    1
     8     3     8   ar
     9     3     4   ar
    10     8     7   ar
    11     9     4    1
    12     9    16    1
    13     9    15    1
    14     4     5   ar
    15     7    13    1
    16     7     6   ar
    17     5     6   ar
    18     5    12    1
    19     6    10    1
    20    18    10    1
    21    10    19    1
    22    10    17    1
