@<TRIPOS>MOLECULE
2
 27 29 0 0 0
SMALL
GASTEIGER

@<TRIPOS>ATOM
      1 N           6.0367    1.7658    2.1965 N.3     1  UNL1       -0.2211
      2 C           5.4900    1.0768    1.4156 C.3     1  UNL1        0.1073
      3 C           6.7179    2.8676    2.7530 C.3     1  UNL1        0.0382
      4 C           5.7013    3.9407    3.1573 C.3     1  UNL1       -0.0303
      5 C           7.6739    3.4381    1.6973 C.3     1  UNL1       -0.0303
      6 C           7.5137    2.4204    3.9830 C.3     1  UNL1       -0.0303
      7 C           6.4465    5.1399    3.7401 C.3     1  UNL1       -0.0388
      8 C           7.2422    4.7000    4.9691 C.3     1  UNL1       -0.0472
      9 C           8.2520    3.6266    4.5633 C.3     1  UNL1       -0.0388
     10 C           9.2068    4.1979    3.5151 C.3     1  UNL1       -0.0472
     11 C           8.4101    4.6389    2.2872 C.3     1  UNL1       -0.0388
     12 C           7.3952    5.7090    2.6862 C.3     1  UNL1       -0.0472
     13 H           5.0083    3.5301    3.8954 H       1  UNL1        0.0286
     14 H           5.1264    4.2386    2.2782 H       1  UNL1        0.0286
     15 H           7.1032    3.7336    0.8141 H       1  UNL1        0.0286
     16 H           8.3849    2.6649    1.3955 H       1  UNL1        0.0286
     17 H           8.2245    1.6419    3.6959 H       1  UNL1        0.0286
     18 H           6.8339    1.9973    4.7263 H       1  UNL1        0.0286
     19 H           5.7194    5.9063    4.0298 H       1  UNL1        0.0302
     20 H           7.7655    5.5565    5.3992 H       1  UNL1        0.0271
     21 H           6.5646    4.3058    5.7300 H       1  UNL1        0.0271
     22 H           8.8222    3.3091    5.4434 H       1  UNL1        0.0302
     23 H           9.7473    5.0500    3.9329 H       1  UNL1        0.0271
     24 H           9.9427    3.4425    3.2301 H       1  UNL1        0.0271
     25 H           9.0924    5.0451    1.5327 H       1  UNL1        0.0302
     26 H           7.9140    6.5829    3.0862 H       1  UNL1        0.0271
     27 H           6.8275    6.0232    1.8077 H       1  UNL1        0.0271
@<TRIPOS>BOND
     1    15     5    1
     2    16     5    1
     3     2     1    1
     4    25    11    1
     5     5    11    1
     6     5     3    1
     7    27    12    1
     8     1     3    1
     9    14     4    1
    10    11    12    1
    11    11    10    1
    12    12    26    1
    13    12     7    1
    14     3     4    1
    15     3     6    1
    16     4     7    1
    17     4    13    1
    18    24    10    1
    19    10    23    1
    20    10     9    1
    21    17     6    1
    22     7    19    1
    23     7     8    1
    24     6     9    1
    25     6    18    1
    26     9     8    1
    27     9    22    1
    28     8    20    1
    29     8    21    1
