@<TRIPOS>MOLECULE
2
 31 31 0 0 0
SMALL
GASTEIGER

@<TRIPOS>ATOM
      1 N           6.7158   -1.2526   -2.0097 N.pl3   1  UNL1       -0.2364
      2 C           5.9459   -0.7504   -1.2710 C.3     1  UNL1        0.1354
      3 C           7.6282   -1.9119   -2.7710 C.ar    1  UNL1        0.0555
      4 C           8.2707   -3.0478   -2.2500 C.ar    1  UNL1       -0.0220
      5 C           9.1987   -3.6945   -3.0513 C.ar    1  UNL1       -0.0565
      6 C           9.4870   -3.2406   -4.3251 C.ar    1  UNL1       -0.0611
      7 C           8.8439   -2.1229   -4.8232 C.ar    1  UNL1       -0.0565
      8 C           7.9078   -1.4401   -4.0630 C.ar    1  UNL1       -0.0220
      9 C           7.9697   -3.5641   -0.8645 C.3     1  UNL1       -0.0197
     10 C           9.2252   -3.5436    0.0094 C.3     1  UNL1       -0.0586
     11 C           7.3890   -4.9782   -0.9287 C.3     1  UNL1       -0.0586
     12 C           7.2078   -0.2237   -4.6186 C.3     1  UNL1       -0.0197
     13 C           8.2167    0.8783   -4.9497 C.3     1  UNL1       -0.0586
     14 C           6.3855   -0.5962   -5.8547 C.3     1  UNL1       -0.0586
     15 H           9.7054   -4.5691   -2.6736 H       1  UNL1        0.0621
     16 H          10.2141   -3.7601   -4.9313 H       1  UNL1        0.0618
     17 H           9.0747   -1.7778   -5.8194 H       1  UNL1        0.0621
     18 H           7.2232   -2.9173   -0.3927 H       1  UNL1        0.0344
     19 H           8.9629   -3.8194    1.0277 H       1  UNL1        0.0235
     20 H           9.9707   -4.2439   -0.3598 H       1  UNL1        0.0235
     21 H           9.6649   -2.5493    0.0241 H       1  UNL1        0.0235
     22 H           7.0871   -5.2928    0.0672 H       1  UNL1        0.0235
     23 H           6.5168   -5.0044   -1.5773 H       1  UNL1        0.0235
     24 H           8.1222   -5.6849   -1.3101 H       1  UNL1        0.0235
     25 H           6.5215    0.1615   -3.8566 H       1  UNL1        0.0344
     26 H           8.8038    1.1332   -4.0700 H       1  UNL1        0.0235
     27 H           8.8968    0.5610   -5.7364 H       1  UNL1        0.0235
     28 H           7.6959    1.7716   -5.2880 H       1  UNL1        0.0235
     29 H           7.0278   -0.9508   -6.6571 H       1  UNL1        0.0235
     30 H           5.6715   -1.3809   -5.6139 H       1  UNL1        0.0235
     31 H           5.8366    0.2717   -6.2142 H       1  UNL1        0.0235
@<TRIPOS>BOND
     1    29    14    1
     2    31    14    1
     3    14    30    1
     4    14    12    1
     5    17     7    1
     6    27    13    1
     7    28    13    1
     8    13    12    1
     9    13    26    1
    10    16     6    1
    11     7     6   ar
    12     7     8   ar
    13    12     8    1
    14    12    25    1
    15     6     5   ar
    16     8     3   ar
    17     5    15    1
    18     5     4   ar
    19     3     4   ar
    20     3     1    1
    21     4     9    1
    22     1     2    1
    23    23    11    1
    24    24    11    1
    25    11     9    1
    26    11    22    1
    27     9    18    1
    28     9    10    1
    29    20    10    1
    30    10    21    1
    31    10    19    1
