@<TRIPOS>MOLECULE
2
 22 22 0 0 0
SMALL
GASTEIGER

@<TRIPOS>ATOM
      1 N          -2.1091    0.2281   -2.0803 N.pl3   1  UNL1       -0.2364
      2 C          -1.2736    0.1167   -1.2627 C.3     1  UNL1        0.1354
      3 C          -3.0763    0.5192   -2.9870 C.ar    1  UNL1        0.0545
      4 C          -3.5579    1.8338   -3.0743 C.ar    1  UNL1       -0.0274
      5 C          -4.5392    2.1155   -4.0096 C.ar    1  UNL1       -0.0541
      6 H          -4.9139    3.1265   -4.0819 H       1  UNL1        0.0623
      7 C          -5.0487    1.1368   -4.8514 C.ar    1  UNL1       -0.0498
      8 C          -4.5554   -0.1569   -4.7424 C.ar    1  UNL1       -0.0541
      9 H          -4.9452   -0.9280   -5.3918 H       1  UNL1        0.0623
     10 C          -3.5753   -0.4881   -3.8225 C.ar    1  UNL1       -0.0274
     11 C          -3.0169    2.8951   -2.1720 C.3     1  UNL1       -0.0379
     12 H          -3.5026    3.8483   -2.3618 H       1  UNL1        0.0278
     13 H          -3.1666    2.6292   -1.1266 H       1  UNL1        0.0278
     14 H          -1.9442    3.0161   -2.3143 H       1  UNL1        0.0278
     15 C          -6.1060    1.4556   -5.8634 C.3     1  UNL1       -0.0397
     16 H          -6.4102    2.4967   -5.7952 H       1  UNL1        0.0278
     17 H          -5.7343    1.2676   -6.8702 H       1  UNL1        0.0278
     18 H          -6.9810    0.8253   -5.7102 H       1  UNL1        0.0278
     19 C          -3.0814   -1.8966   -3.7104 C.3     1  UNL1       -0.0379
     20 H          -3.1432   -2.4014   -4.6719 H       1  UNL1        0.0278
     21 H          -2.0532   -1.9201   -3.3573 H       1  UNL1        0.0278
     22 H          -3.6967   -2.4487   -2.9987 H       1  UNL1        0.0278
@<TRIPOS>BOND
     1    17    15    1
     2    15    16    1
     3    15    18    1
     4    15     7    1
     5     9     8    1
     6     7     8   ar
     7     7     5   ar
     8     8    10   ar
     9    20    19    1
    10     6     5    1
    11     5     4   ar
    12    10    19    1
    13    10     3   ar
    14    19    21    1
    15    19    22    1
    16     4     3   ar
    17     4    11    1
    18     3     1    1
    19    12    11    1
    20    14    11    1
    21    11    13    1
    22     1     2    1
