@<TRIPOS>MOLECULE
2
 22 22 0 0 0
SMALL
GASTEIGER

@<TRIPOS>ATOM
      1 N           2.1090   -0.2297    2.0802 N.pl3   1  UNL1       -0.2364
      2 C           1.2738   -0.1184    1.2623 C.3     1  UNL1        0.1354
      3 C           3.0765   -0.5205    2.9867 C.ar    1  UNL1        0.0545
      4 C           3.5581   -1.8350    3.0741 C.ar    1  UNL1       -0.0274
      5 C           4.5395   -2.1165    4.0096 C.ar    1  UNL1       -0.0541
      6 H           4.9143   -3.1275    4.0820 H       1  UNL1        0.0623
      7 C           5.0487   -1.1376    4.8513 C.ar    1  UNL1       -0.0498
      8 C           4.5553    0.1560    4.7421 C.ar    1  UNL1       -0.0541
      9 H           4.9449    0.9272    5.3915 H       1  UNL1        0.0623
     10 C           3.5752    0.4870    3.8222 C.ar    1  UNL1       -0.0274
     11 C           3.0173   -2.8964    2.1719 C.3     1  UNL1       -0.0379
     12 H           3.5031   -3.8495    2.3617 H       1  UNL1        0.0278
     13 H           3.1669   -2.6306    1.1264 H       1  UNL1        0.0278
     14 H           1.9446   -3.0175    2.3142 H       1  UNL1        0.0278
     15 C           6.1061   -1.4561    5.8633 C.3     1  UNL1       -0.0397
     16 H           6.4105   -2.4972    5.7952 H       1  UNL1        0.0278
     17 H           5.7343   -1.2680    6.8701 H       1  UNL1        0.0278
     18 H           6.9810   -0.8257    5.7101 H       1  UNL1        0.0278
     19 C           3.0809    1.8954    3.7099 C.3     1  UNL1       -0.0379
     20 H           3.1425    2.4002    4.6715 H       1  UNL1        0.0278
     21 H           2.0529    1.9186    3.3567 H       1  UNL1        0.0278
     22 H           3.6963    2.4476    2.9984 H       1  UNL1        0.0278
@<TRIPOS>BOND
     1    13    11    1
     2     2     1    1
     3     1     3    1
     4    11    14    1
     5    11    12    1
     6    11     4    1
     7     3     4   ar
     8     3    10   ar
     9    22    19    1
    10     4     5   ar
    11    21    19    1
    12    19    10    1
    13    19    20    1
    14    10     8   ar
    15     5     6    1
    16     5     7   ar
    17     8     7   ar
    18     8     9    1
    19     7    15    1
    20    18    15    1
    21    16    15    1
    22    15    17    1
