@<TRIPOS>MOLECULE
2
 19 19 0 0 0
SMALL
GASTEIGER

@<TRIPOS>ATOM
      1 N          12.5258    3.7519    2.6251 N.pl3   1  UNL1       -0.2365
      2 C          11.7920    3.8100    3.5225 C.3     1  UNL1        0.1354
      3 C          13.4025    3.7452    1.5918 C.ar    1  UNL1        0.0544
      4 C          14.4854    4.6328    1.6333 C.ar    1  UNL1       -0.0276
      5 C          15.3669    4.6096    0.5639 C.ar    1  UNL1       -0.0570
      6 H          16.2131    5.2796    0.5619 H       1  UNL1        0.0621
      7 C          15.1709    3.7388   -0.4960 C.ar    1  UNL1       -0.0611
      8 H          15.8687    3.7363   -1.3196 H       1  UNL1        0.0618
      9 C          14.0904    2.8714   -0.5127 C.ar    1  UNL1       -0.0570
     10 H          13.9506    2.1998   -1.3460 H       1  UNL1        0.0621
     11 C          13.1814    2.8559    0.5333 C.ar    1  UNL1       -0.0276
     12 C          11.9982    1.9454    0.5734 C.3     1  UNL1       -0.0379
     13 H          11.9523    1.3282   -0.3191 H       1  UNL1        0.0278
     14 H          11.0769    2.5230    0.6542 H       1  UNL1        0.0278
     15 H          12.0475    1.2986    1.4500 H       1  UNL1        0.0278
     16 C          14.6425    5.5502    2.8004 C.3     1  UNL1       -0.0379
     17 H          15.5257    6.1723    2.6890 H       1  UNL1        0.0278
     18 H          14.7241    4.9794    3.7260 H       1  UNL1        0.0278
     19 H          13.7659    6.1914    2.9002 H       1  UNL1        0.0278
@<TRIPOS>BOND
     1    10     9    1
     2     8     7    1
     3     9     7   ar
     4     9    11   ar
     5     7     5   ar
     6    13    12    1
     7    11    12    1
     8    11     3   ar
     9     6     5    1
    10     5     4   ar
    11    12    14    1
    12    12    15    1
    13     3     4   ar
    14     3     1    1
    15     4    16    1
    16     1     2    1
    17    17    16    1
    18    16    19    1
    19    16    18    1
