@<TRIPOS>MOLECULE
2
 16 15 0 0 0
SMALL
GASTEIGER

@<TRIPOS>ATOM
      1 SI          2.9996   10.7108    3.3059 Si      1  UNL1        0.0000
      2 C           3.5420    9.1828    2.3582 C.3     1  UNL1        0.0000
      3 C           2.7823   12.3042    2.2508 C.3     1  UNL1        0.0000
      4 C           4.2739   11.1712    4.6665 C.3     1  UNL1        0.0000
      5 C           1.3176   10.3793    4.1578 C.3     1  UNL1        0.0000
      6 H           4.4800    9.3985    1.8316 H       1  UNL1        0.0000
      7 H           2.8030    8.9905    1.5696 H       1  UNL1        0.0000
      8 H           3.7154   12.5925    1.7756 H       1  UNL1        0.0000
      9 H           2.4477   13.1460    2.8496 H       1  UNL1        0.0000
     10 H           2.0507   12.1528    1.4629 H       1  UNL1        0.0000
     11 H           4.4616   10.3336    5.3323 H       1  UNL1        0.0000
     12 H           3.9133   11.9963    5.2725 H       1  UNL1        0.0000
     13 H           5.2231   11.4765    4.2373 H       1  UNL1        0.0000
     14 H           0.5157   10.3087    3.4294 H       1  UNL1        0.0000
     15 H           1.0562   11.1753    4.8482 H       1  UNL1        0.0000
     16 H           1.3431    9.4481    4.7173 H       1  UNL1        0.0000
@<TRIPOS>BOND
     1    10     3    1
     2     7     2    1
     3     8     3    1
     4     6     2    1
     5     3     9    1
     6     3     1    1
     7     2     1    1
     8     1     5    1
     9     1     4    1
    10    14     5    1
    11     5    16    1
    12     5    15    1
    13    13     4    1
    14     4    12    1
    15     4    11    1
