@<TRIPOS>MOLECULE
2
 16 15 0 0 0
SMALL
GASTEIGER

@<TRIPOS>ATOM
      1 SI          1.9802    6.4128    6.7394 Si      1  UNL1        0.0000
      2 C           3.4092    7.3059    5.8941 C.3     1  UNL1        0.0000
      3 C           2.3637    5.8934    8.5504 C.3     1  UNL1        0.0000
      4 C           0.4111    7.5084    6.8107 C.3     1  UNL1        0.0000
      5 C           1.4786    4.7840    5.8395 C.3     1  UNL1        0.0000
      6 H           4.3397    7.0234    6.4023 H       1  UNL1        0.0000
      7 H           3.2861    8.3747    6.1075 H       1  UNL1        0.0000
      8 H           2.5899    6.7580    9.1665 H       1  UNL1        0.0000
      9 H           3.2211    5.2276    8.5962 H       1  UNL1        0.0000
     10 H           1.5259    5.3763    9.0081 H       1  UNL1        0.0000
     11 H           0.0412    7.7446    5.8179 H       1  UNL1        0.0000
     12 H           0.6119    8.4469    7.3171 H       1  UNL1        0.0000
     13 H          -0.3910    7.0123    7.3491 H       1  UNL1        0.0000
     14 H           1.8228    3.9059    6.3791 H       1  UNL1        0.0000
     15 H           1.8849    4.7426    4.8277 H       1  UNL1        0.0000
     16 H           0.3985    4.7007    5.7611 H       1  UNL1        0.0000
@<TRIPOS>BOND
     1    15     5    1
     2    16     5    1
     3    11     4    1
     4     5    14    1
     5     5     1    1
     6     2     7    1
     7     2     6    1
     8     2     1    1
     9     1     4    1
    10     1     3    1
    11     4    12    1
    12     4    13    1
    13     3     9    1
    14     3    10    1
    15     3     8    1
