@<TRIPOS>MOLECULE
2
 16 15 0 0 0
SMALL
GASTEIGER

@<TRIPOS>ATOM
      1 SI         -0.3375    4.0986    1.7799 Si      1  UNL1        0.0000
      2 C           0.2721    2.3483    2.1697 C.3     1  UNL1        0.0000
      3 C           0.3963    5.3512    3.0253 C.3     1  UNL1        0.0000
      4 C          -2.2518    4.2674    1.8629 C.3     1  UNL1        0.0000
      5 C           0.1755    4.6012    0.0028 C.3     1  UNL1        0.0000
      6 H          -0.1686    1.6755    1.4142 H       1  UNL1        0.0000
      7 H          -0.1899    2.0495    3.1261 H       1  UNL1        0.0000
      8 H           0.0435    5.1691    4.0366 H       1  UNL1        0.0000
      9 H           0.1347    6.3726    2.7664 H       1  UNL1        0.0000
     10 H           1.4809    5.2794    3.0310 H       1  UNL1        0.0000
     11 H          -2.7384    3.6156    1.1437 H       1  UNL1        0.0000
     12 H          -2.5709    5.2827    1.6504 H       1  UNL1        0.0000
     13 H          -2.6287    4.0063    2.8469 H       1  UNL1        0.0000
     14 H           1.2569    4.6537   -0.0772 H       1  UNL1        0.0000
     15 H          -0.2206    5.5769   -0.2604 H       1  UNL1        0.0000
     16 H          -0.1856    3.8943   -0.7399 H       1  UNL1        0.0000
@<TRIPOS>BOND
     1    16     5    1
     2    15     5    1
     3    14     5    1
     4     5     1    1
     5    11     4    1
     6     6     2    1
     7    12     4    1
     8     1     4    1
     9     1     2    1
    10     1     3    1
    11     4    13    1
    12     2     7    1
    13     9     3    1
    14     3    10    1
    15     3     8    1
