@<TRIPOS>MOLECULE
10
 25 24 0 0 0
SMALL
GASTEIGER

@<TRIPOS>ATOM
      1 SI          8.9342    4.7126    2.4775 Si      1  UNL1        0.0000
      2 SI          6.1986    4.8297    0.7187 Si      1  UNL1        0.0000
      3 C           8.0954    5.1616    0.8257 C.3     1  UNL1        0.0000
      4 C          10.7816    6.2791    4.1912 C.2     1  UNL1        0.0000
      5 C           9.1081    2.8078    2.4583 C.3     1  UNL1        0.0000
      6 C          10.3294    5.5150    3.2233 C.2     1  UNL1        0.0000
      7 C           4.3341    4.2221    2.6783 C.2     1  UNL1        0.0000
      8 C           5.4450    6.1619   -0.4358 C.3     1  UNL1        0.0000
      9 C           5.9459    3.1392   -0.1537 C.3     1  UNL1        0.0000
     10 C           5.4787    4.8904    2.4782 C.2     1  UNL1        0.0000
     11 H          10.1800    6.7044    4.9898 H       1  UNL1        0.0000
     12 H          11.8331    6.5417    4.2321 H       1  UNL1        0.0000
     13 H           8.2747    6.2141    0.6188 H       1  UNL1        0.0000
     14 H           8.6010    4.6092    0.0331 H       1  UNL1        0.0000
     15 H           3.8384    4.1690    3.6501 H       1  UNL1        0.0000
     16 H           3.8061    3.6625    1.9020 H       1  UNL1        0.0000
     17 H           8.1653    2.3178    2.2370 H       1  UNL1        0.0000
     18 H           9.8186    2.5183    1.6894 H       1  UNL1        0.0000
     19 H           6.4552    3.1037   -1.1120 H       1  UNL1        0.0000
     20 H           5.7144    7.1598   -0.1043 H       1  UNL1        0.0000
     21 H           5.8054    6.0450   -1.4533 H       1  UNL1        0.0000
     22 H           4.8924    2.9532   -0.3377 H       1  UNL1        0.0000
     23 H           9.4787    2.4309    3.4048 H       1  UNL1        0.0000
     24 H           6.3202    2.3170    0.4486 H       1  UNL1        0.0000
     25 H           4.3608    6.1009   -0.4637 H       1  UNL1        0.0000
@<TRIPOS>BOND
     1    21     8    1
     2    19     9    1
     3    25     8    1
     4     8    20    1
     5     8     2    1
     6    22     9    1
     7     9    24    1
     8     9     2    1
     9    14     3    1
    10    13     3    1
    11     2     3    1
    12     2    10    1
    13     3     1    1
    14    18     5    1
    15    16     7    1
    16    17     5    1
    17     5     1    1
    18     5    23    1
    19     1     6    1
    20    10     7    2
    21     7    15    1
    22     6     4    2
    23     4    12    1
    24     4    11    1
