@<TRIPOS>MOLECULE
1
 16 15 0 0 0
SMALL
GASTEIGER

@<TRIPOS>ATOM
      1 C          -1.7979   -2.3417   11.0948 C.3     1  UNL1        0.0000
      2 SI         -3.6431   -2.7289   10.9379 Si      1  UNL1        0.0000
      3 C          -4.5724   -2.6280   12.6100 C.3     1  UNL1        0.0000
      4 C          -3.9350   -4.5230   10.3073 C.3     1  UNL1        0.0000
      5 C          -4.5408   -1.6084    9.6684 C.3     1  UNL1        0.0000
      6 H          -1.3867   -2.6215   10.1110 H       1  UNL1        0.0000
      7 H          -1.4262   -3.1318   11.7694 H       1  UNL1        0.0000
      8 H          -4.6556   -1.6070   12.9654 H       1  UNL1        0.0000
      9 H          -4.0659   -3.2055   13.3775 H       1  UNL1        0.0000
     10 H          -5.5796   -3.0232   12.5177 H       1  UNL1        0.0000
     11 H          -3.4735   -4.6775    9.3365 H       1  UNL1        0.0000
     12 H          -4.9913   -4.7525   10.2050 H       1  UNL1        0.0000
     13 H          -3.5082   -5.2527   10.9889 H       1  UNL1        0.0000
     14 H          -4.5484   -0.5691    9.9793 H       1  UNL1        0.0000
     15 H          -5.5742   -1.9172    9.5439 H       1  UNL1        0.0000
     16 H          -4.0675   -1.6571    8.6930 H       1  UNL1        0.0000
@<TRIPOS>BOND
     1    16     5    1
     2    11     4    1
     3    15     5    1
     4     5    14    1
     5     5     2    1
     6     6     1    1
     7    12     4    1
     8     4     2    1
     9     4    13    1
    10     2     1    1
    11     2     3    1
    12     1     7    1
    13    10     3    1
    14     3     8    1
    15     3     9    1
