@<TRIPOS>MOLECULE
1
 16 15 0 0 0
SMALL
GASTEIGER

@<TRIPOS>ATOM
      1 C          -2.7541    0.7143   12.4433 C.3     1  UNL1        0.0000
      2 SI         -3.0843    2.4504   13.0955 Si      1  UNL1        0.0000
      3 C          -4.6816    2.5330   14.1655 C.3     1  UNL1        0.0000
      4 C          -3.3308    3.7315   11.6934 C.3     1  UNL1        0.0000
      5 C          -1.7017    3.1396   14.2290 C.3     1  UNL1        0.0000
      6 H          -3.4525    0.5722   11.6019 H       1  UNL1        0.0000
      7 H          -3.1286    0.0279   13.2222 H       1  UNL1        0.0000
      8 H          -4.5875    1.9208   15.0583 H       1  UNL1        0.0000
      9 H          -5.5423    2.1690   13.6124 H       1  UNL1        0.0000
     10 H          -4.9058    3.5455   14.4879 H       1  UNL1        0.0000
     11 H          -2.4750    3.7602   11.0277 H       1  UNL1        0.0000
     12 H          -3.4687    4.7313   12.0943 H       1  UNL1        0.0000
     13 H          -4.2059    3.4965   11.0960 H       1  UNL1        0.0000
     14 H          -0.7730    3.2594   13.6815 H       1  UNL1        0.0000
     15 H          -1.5072    2.4779   15.0672 H       1  UNL1        0.0000
     16 H          -1.9744    4.1094   14.6355 H       1  UNL1        0.0000
@<TRIPOS>BOND
     1    11     4    1
     2    13     4    1
     3     6     1    1
     4     4    12    1
     5     4     2    1
     6     1     2    1
     7     1     7    1
     8     2     3    1
     9     2     5    1
    10     9     3    1
    11    14     5    1
    12     3    10    1
    13     3     8    1
    14     5    16    1
    15     5    15    1
