@<TRIPOS>MOLECULE
1
 4 3 0 0 0
SMALL
GASTEIGER

@<TRIPOS>ATOM
      1 C          -0.0924    1.9527    5.8967 C.3     1  UNL1       -0.0681
      2 H          -0.6509    2.8251    6.2350 H       1  UNL1        0.0227
      3 H          -0.7806    1.3224    5.3249 H       1  UNL1        0.0227
      4 H           0.1810    1.3980    6.7941 H       1  UNL1        0.0227
@<TRIPOS>BOND
     1     3     1    1
     2     1     2    1
     3     1     4    1
