@<TRIPOS>MOLECULE
3
 28 27 0 0 0
SMALL
GASTEIGER

@<TRIPOS>ATOM
      1 SI          9.1925    7.9031    1.2431 Si      1  UNL1        0.0000
      2 SI          7.3928    7.9297    3.9253 Si      1  UNL1        0.0000
      3 C           8.6952    7.0654    2.8637 C.3     1  UNL1        0.0000
      4 H           9.6050    7.0132    3.4793 H       1  UNL1        0.0000
      5 C          10.6870    9.0836    1.4475 C.3     1  UNL1        0.0000
      6 H          10.9695    9.5494    0.5084 H       1  UNL1        0.0000
      7 H          11.5571    8.5565    1.8260 H       1  UNL1        0.0000
      8 H          10.4549    9.8758    2.1514 H       1  UNL1        0.0000
      9 C           9.7183    6.5455   -0.0192 C.3     1  UNL1        0.0000
     10 H           8.8501    6.0070   -0.4011 H       1  UNL1        0.0000
     11 H          10.4020    5.8236    0.4272 H       1  UNL1        0.0000
     12 H          10.2243    6.9783   -0.8776 H       1  UNL1        0.0000
     13 C           7.8084    8.9044    0.3869 C.3     1  UNL1        0.0000
     14 H           6.9170    8.3077    0.2275 H       1  UNL1        0.0000
     15 H           8.1344    9.2691   -0.5822 H       1  UNL1        0.0000
     16 H           7.5267    9.7646    0.9833 H       1  UNL1        0.0000
     17 C           7.2178    6.9126    5.5475 C.3     1  UNL1        0.0000
     18 H           6.4062    7.2856    6.1644 H       1  UNL1        0.0000
     19 H           8.1235    6.9706    6.1440 H       1  UNL1        0.0000
     20 H           7.0184    5.8589    5.3422 H       1  UNL1        0.0000
     21 C           5.6627    7.9793    3.1040 C.3     1  UNL1        0.0000
     22 H           4.8902    8.1768    3.8410 H       1  UNL1        0.0000
     23 H           5.4170    7.0412    2.6140 H       1  UNL1        0.0000
     24 H           5.6065    8.7657    2.3604 H       1  UNL1        0.0000
     25 C           7.8250    9.7258    4.4294 C.3     1  UNL1        0.0000
     26 H           7.0731   10.1573    5.0829 H       1  UNL1        0.0000
     27 H           7.9049   10.3619    3.5541 H       1  UNL1        0.0000
     28 H           8.7761    9.7686    4.9501 H       1  UNL1        0.0000
@<TRIPOS>BOND
     1    12     9    1
     2    15    13    1
     3    10     9    1
     4     9    11    1
     5     9     1    1
     6    14    13    1
     7    13    16    1
     8    13     1    1
     9     6     5    1
    10     1     5    1
    11     1     3    1
    12     5     7    1
    13     5     8    1
    14    24    21    1
    15    23    21    1
    16     3     4    1
    17     3     2    1
    18    21    22    1
    19    21     2    1
    20    27    25    1
    21     2    25    1
    22     2    17    1
    23    25    28    1
    24    25    26    1
    25    20    17    1
    26    17    19    1
    27    17    18    1
