@<TRIPOS>MOLECULE
1
 28 27 0 0 0
SMALL
GASTEIGER

@<TRIPOS>ATOM
      1 C           9.9188    3.0488    2.8637 C.3     1  UNL1        0.0000
      2 SI         10.3956    2.1994    1.2431 Si      1  UNL1        0.0000
      3 C          10.6708    0.3149    1.4475 C.3     1  UNL1        0.0000
      4 H          10.9328   -0.1626    0.5084 H       1  UNL1        0.0000
      5 H           9.7792   -0.1751    1.8260 H       1  UNL1        0.0000
      6 H          11.4729    0.1198    2.1515 H       1  UNL1        0.0000
      7 C           8.9570    2.4229   -0.0192 C.3     1  UNL1        0.0000
      8 H           8.9247    3.4440   -0.4011 H       1  UNL1        0.0000
      9 H           7.9899    2.1916    0.4271 H       1  UNL1        0.0000
     10 H           9.0789    1.7682   -0.8776 H       1  UNL1        0.0000
     11 C          11.9549    2.8975    0.3869 C.3     1  UNL1        0.0000
     12 H          11.8837    3.9678    0.2275 H       1  UNL1        0.0000
     13 H          12.1077    2.4328   -0.5821 H       1  UNL1        0.0000
     14 H          12.8406    2.7113    0.9833 H       1  UNL1        0.0000
     15 SI         11.3184    3.7447    3.9254 Si      1  UNL1        0.0000
     16 C          10.5251    4.4048    5.5476 C.3     1  UNL1        0.0000
     17 H          11.2538    4.9211    6.1645 H       1  UNL1        0.0000
     18 H          10.1224    3.5914    6.1441 H       1  UNL1        0.0000
     19 H           9.7122    5.1043    5.3423 H       1  UNL1        0.0000
     20 C          12.2264    5.2182    3.1041 C.3     1  UNL1        0.0000
     21 H          12.7836    5.7886    3.8412 H       1  UNL1        0.0000
     22 H          11.5368    5.9000    2.6139 H       1  UNL1        0.0000
     23 H          12.9357    4.8736    2.3606 H       1  UNL1        0.0000
     24 C          12.6579    2.4723    4.4295 C.3     1  UNL1        0.0000
     25 H          13.4074    2.9078    5.0830 H       1  UNL1        0.0000
     26 H          13.1688    2.0852    3.5541 H       1  UNL1        0.0000
     27 H          12.2194    1.6272    4.9501 H       1  UNL1        0.0000
     28 H           9.4186    2.2872    3.4793 H       1  UNL1        0.0000
@<TRIPOS>BOND
     1    10     7    1
     2    13    11    1
     3     8     7    1
     4     7     9    1
     5     7     2    1
     6    12    11    1
     7    11    14    1
     8    11     2    1
     9     4     3    1
    10     2     3    1
    11     2     1    1
    12     3     5    1
    13     3     6    1
    14    23    20    1
    15    22    20    1
    16     1    28    1
    17     1    15    1
    18    20    21    1
    19    20    15    1
    20    26    24    1
    21    15    24    1
    22    15    16    1
    23    24    27    1
    24    24    25    1
    25    19    16    1
    26    16    18    1
    27    16    17    1
