@<TRIPOS>MOLECULE
1
 28 27 0 0 0
SMALL
GASTEIGER

@<TRIPOS>ATOM
      1 C           5.8285    3.9976    2.8638 C.3     1  UNL1        0.0000
      2 SI          4.8545    4.0094    1.2432 Si      1  UNL1        0.0000
      3 C           3.0848    4.7133    1.4476 C.3     1  UNL1        0.0000
      4 H           2.5402    4.7252    0.5085 H       1  UNL1        0.0000
      5 H           3.1063    5.7304    1.8261 H       1  UNL1        0.0000
      6 H           2.5148    4.1162    2.1515 H       1  UNL1        0.0000
      7 C           5.7673    5.1436   -0.0192 C.3     1  UNL1        0.0000
      8 H           6.6677    4.6609   -0.4011 H       1  UNL1        0.0000
      9 H           6.0506    6.0967    0.4273 H       1  UNL1        0.0000
     10 H           5.1393    5.3654   -0.8775 H       1  UNL1        0.0000
     11 C           4.6794    2.3100    0.3869 C.3     1  UNL1        0.0000
     12 H           5.6418    1.8365    0.2275 H       1  UNL1        0.0000
     13 H           4.2005    2.4100   -0.5821 H       1  UNL1        0.0000
     14 H           4.0752    1.6360    0.9833 H       1  UNL1        0.0000
     15 SI          5.7313    2.4375    3.9253 Si      1  UNL1        0.0000
     16 C           6.6996    2.7945    5.5475 C.3     1  UNL1        0.0000
     17 H           6.7824    1.9051    6.1644 H       1  UNL1        0.0000
     18 H           6.1966    3.5498    6.1441 H       1  UNL1        0.0000
     19 H           7.7118    3.1486    5.3422 H       1  UNL1        0.0000
     20 C           6.5534    0.9144    3.1040 C.3     1  UNL1        0.0000
     21 H           6.7688    0.1467    3.8410 H       1  UNL1        0.0000
     22 H           7.4886    1.1707    2.6139 H       1  UNL1        0.0000
     23 H           5.9004    0.4724    2.3605 H       1  UNL1        0.0000
     24 C           3.9597    1.9137    4.4294 C.3     1  UNL1        0.0000
     25 H           3.9620    1.0468    5.0829 H       1  UNL1        0.0000
     26 H           3.3690    1.6648    3.5541 H       1  UNL1        0.0000
     27 H           3.4470    2.7159    4.9501 H       1  UNL1        0.0000
     28 H           5.4189    4.8116    3.4794 H       1  UNL1        0.0000
@<TRIPOS>BOND
     1    10     7    1
     2    13    11    1
     3     8     7    1
     4     7     9    1
     5     7     2    1
     6    12    11    1
     7    11    14    1
     8    11     2    1
     9     4     3    1
    10     2     3    1
    11     2     1    1
    12     3     5    1
    13     3     6    1
    14    23    20    1
    15    22    20    1
    16     1    28    1
    17     1    15    1
    18    20    21    1
    19    20    15    1
    20    26    24    1
    21    15    24    1
    22    15    16    1
    23    24    27    1
    24    24    25    1
    25    19    16    1
    26    16    18    1
    27    16    17    1
