@<TRIPOS>MOLECULE
2
 15 14 0 0 0
SMALL
GASTEIGER

@<TRIPOS>ATOM
      1 SI          2.4523    5.8493    5.3471 Si      1  UNL1        0.0000
      2 C           2.2807    7.5210    4.5201 C.3     1  UNL1        0.0000
      3 H           3.2371    8.0349    4.5793 H       1  UNL1        0.0000
      4 C           2.7020    6.0170    7.2377 C.3     1  UNL1        0.0000
      5 H           2.9062    5.0554    7.6989 H       1  UNL1        0.0000
      6 H           1.8281    6.4421    7.7215 H       1  UNL1        0.0000
      7 H           3.5403    6.6710    7.4526 H       1  UNL1        0.0000
      8 C           3.9271    4.8508    4.6497 C.3     1  UNL1        0.0000
      9 H           4.1356    3.9734    5.2541 H       1  UNL1        0.0000
     10 H           4.8260    5.4573    4.6313 H       1  UNL1        0.0000
     11 H           3.7360    4.5180    3.6346 H       1  UNL1        0.0000
     12 C           0.8955    4.7505    5.0845 C.3     1  UNL1        0.0000
     13 H           0.6009    4.7309    4.0364 H       1  UNL1        0.0000
     14 H           0.0577    5.1002    5.6827 H       1  UNL1        0.0000
     15 H           1.0897    3.7230    5.3786 H       1  UNL1        0.0000
@<TRIPOS>BOND
     1    11     8    1
     2    13    12    1
     3     2     3    1
     4     2     1    1
     5    10     8    1
     6     8     9    1
     7     8     1    1
     8    12     1    1
     9    12    15    1
    10    12    14    1
    11     1     4    1
    12     4     7    1
    13     4     5    1
    14     4     6    1
