@<TRIPOS>MOLECULE
2
 29 29 0 0 0
SMALL
GASTEIGER

@<TRIPOS>ATOM
      1 C          22.6561    3.0372    2.7691 C.ar    1  UNL1        0.0000
      2 C          23.2104    1.6714    2.5329 C.3     1  UNL1        0.0000
      3 SI         24.9332    1.8640    1.7451 Si      1  UNL1        0.0000
      4 C          26.2877    2.1011    3.0925 C.3     1  UNL1        0.0000
      5 C          25.5738    0.3700    0.7299 C.3     1  UNL1        0.0000
      6 C          25.1226    3.4036    0.6149 C.3     1  UNL1        0.0000
      7 C          22.6654    3.6790    4.0237 C.ar    1  UNL1        0.0000
      8 C          23.3209    3.0641    5.2275 C.3     1  UNL1        0.0000
      9 C          22.0942    4.9374    4.1567 C.ar    1  UNL1        0.0000
     10 C          21.5508    5.6130    3.0791 C.ar    1  UNL1        0.0000
     11 C          21.6047    5.0263    1.8264 C.ar    1  UNL1        0.0000
     12 C          22.1476    3.7643    1.6830 C.ar    1  UNL1        0.0000
     13 H          23.3874    1.1941    3.5089 H       1  UNL1        0.0000
     14 H          26.1945    3.0626    3.5878 H       1  UNL1        0.0000
     15 H          26.2375    1.3273    3.8536 H       1  UNL1        0.0000
     16 H          27.2815    2.0583    2.6576 H       1  UNL1        0.0000
     17 H          25.7753   -0.4873    1.3629 H       1  UNL1        0.0000
     18 H          24.8905    0.0695   -0.0556 H       1  UNL1        0.0000
     19 H          26.5118    0.6394    0.2550 H       1  UNL1        0.0000
     20 H          24.6181    3.2996   -0.3402 H       1  UNL1        0.0000
     21 H          24.7315    4.2936    1.0970 H       1  UNL1        0.0000
     22 H          26.1724    3.5818    0.4021 H       1  UNL1        0.0000
     23 H          22.7557    2.2169    5.6128 H       1  UNL1        0.0000
     24 H          24.3211    2.7151    4.9816 H       1  UNL1        0.0000
     25 H          23.3996    3.7998    6.0249 H       1  UNL1        0.0000
     26 H          22.0908    5.4102    5.1294 H       1  UNL1        0.0000
     27 H          21.1147    6.5916    3.2119 H       1  UNL1        0.0000
     28 H          21.2232    5.5522    0.9625 H       1  UNL1        0.0000
     29 H          22.2093    3.3312    0.6938 H       1  UNL1        0.0000
@<TRIPOS>BOND
     1    20     6    1
     2    18     5    1
     3    19     5    1
     4    22     6    1
     5     6    21    1
     6     6     3    1
     7    29    12    1
     8     5    17    1
     9     5     3    1
    10    28    11    1
    11    12    11   ar
    12    12     1   ar
    13     3     2    1
    14     3     4    1
    15    11    10   ar
    16     2     1    1
    17     2    13    1
    18    16     4    1
    19     1     7   ar
    20    10    27    1
    21    10     9   ar
    22     4    14    1
    23     4    15    1
    24     7     9   ar
    25     7     8    1
    26     9    26    1
    27    24     8    1
    28     8    23    1
    29     8    25    1
