@<TRIPOS>MOLECULE
2
 29 29 0 0 0
SMALL
GASTEIGER

@<TRIPOS>ATOM
      1 C          22.1643   -2.6057    1.5379 C.ar    1  UNL1        0.0000
      2 C          22.7172   -1.4536    2.3096 C.3     1  UNL1        0.0000
      3 SI         23.0523   -2.0471    4.0878 Si      1  UNL1        0.0000
      4 C          21.8292   -3.3815    4.7262 C.3     1  UNL1        0.0000
      5 C          23.1190   -0.6864    5.4356 C.3     1  UNL1        0.0000
      6 C          24.7765   -2.8930    4.2211 C.3     1  UNL1        0.0000
      7 C          22.9279   -3.3955    0.6554 C.ar    1  UNL1        0.0000
      8 C          24.4050   -3.1881    0.4761 C.3     1  UNL1        0.0000
      9 C          22.3192   -4.4283   -0.0450 C.ar    1  UNL1        0.0000
     10 C          20.9838   -4.7437    0.1281 C.ar    1  UNL1        0.0000
     11 C          20.2407   -4.0237    1.0479 C.ar    1  UNL1        0.0000
     12 C          20.8263   -2.9778    1.7342 C.ar    1  UNL1        0.0000
     13 H          23.7049   -1.1989    1.8959 H       1  UNL1        0.0000
     14 H          20.8470   -2.9865    4.9640 H       1  UNL1        0.0000
     15 H          21.6962   -4.1717    3.9946 H       1  UNL1        0.0000
     16 H          22.2164   -3.8373    5.6325 H       1  UNL1        0.0000
     17 H          23.9716   -0.0299    5.3003 H       1  UNL1        0.0000
     18 H          22.2188   -0.0843    5.4723 H       1  UNL1        0.0000
     19 H          23.2326   -1.1551    6.4080 H       1  UNL1        0.0000
     20 H          24.7992   -3.8385    3.6881 H       1  UNL1        0.0000
     21 H          25.5653   -2.2638    3.8183 H       1  UNL1        0.0000
     22 H          25.0297   -3.1009    5.2560 H       1  UNL1        0.0000
     23 H          24.6250   -2.2765   -0.0773 H       1  UNL1        0.0000
     24 H          24.9021   -3.1221    1.4410 H       1  UNL1        0.0000
     25 H          24.8337   -4.0219   -0.0754 H       1  UNL1        0.0000
     26 H          22.9129   -5.0145   -0.7331 H       1  UNL1        0.0000
     27 H          20.5375   -5.5537   -0.4289 H       1  UNL1        0.0000
     28 H          19.2056   -4.2772    1.2288 H       1  UNL1        0.0000
     29 H          20.2416   -2.4426    2.4702 H       1  UNL1        0.0000
@<TRIPOS>BOND
     1    26     9    1
     2    27    10    1
     3    23     8    1
     4    25     8    1
     5     9    10   ar
     6     9     7   ar
     7    10    11   ar
     8     8     7    1
     9     8    24    1
    10     7     1   ar
    11    11    28    1
    12    11    12   ar
    13     1    12   ar
    14     1     2    1
    15    12    29    1
    16    13     2    1
    17     2     3    1
    18    20     6    1
    19    21     6    1
    20    15     4    1
    21     3     6    1
    22     3     4    1
    23     3     5    1
    24     6    22    1
    25     4    14    1
    26     4    16    1
    27    17     5    1
    28     5    18    1
    29     5    19    1
