@<TRIPOS>MOLECULE
1
 4 3 0 0 0
SMALL
GASTEIGER

@<TRIPOS>ATOM
      1 C           0.9526    2.0160    3.1930 C.3     1  UNL1       -0.0681
      2 H           0.5033    1.0776    2.8324 H       1  UNL1        0.0227
      3 H           0.1278    2.6664    3.5131 H       1  UNL1        0.0227
      4 H           1.5470    1.7702    4.0849 H       1  UNL1        0.0227
@<TRIPOS>BOND
     1     2     1    1
     2     1     3    1
     3     1     4    1
