@<TRIPOS>MOLECULE
1
 4 3 0 0 0
SMALL
GASTEIGER

@<TRIPOS>ATOM
      1 C           0.3136   -1.7577    4.5539 C.3     1  UNL1       -0.0681
      2 H           1.3417   -1.9907    4.8641 H       1  UNL1        0.0227
      3 H           0.0404   -2.4555    3.7511 H       1  UNL1        0.0227
      4 H          -0.3439   -1.9745    5.4080 H       1  UNL1        0.0227
@<TRIPOS>BOND
     1     3     1    1
     2     1     2    1
     3     1     4    1
