@<TRIPOS>MOLECULE
1
 4 3 0 0 0
SMALL
GASTEIGER

@<TRIPOS>ATOM
      1 C           0.7225    3.6973    0.5597 C.3     1  UNL1       -0.0681
      2 H           0.0365    4.4043    1.0459 H       1  UNL1        0.0227
      3 H           0.0918    2.8988    0.1348 H       1  UNL1        0.0227
      4 H           1.1801    4.2250   -0.2913 H       1  UNL1        0.0227
@<TRIPOS>BOND
     1     4     1    1
     2     3     1    1
     3     1     2    1
