@<TRIPOS>MOLECULE
1
 4 3 0 0 0
SMALL
GASTEIGER

@<TRIPOS>ATOM
      1 C          -1.5618    0.0952    2.9168 C.3     1  UNL1       -0.0681
      2 H          -1.9581    1.0875    2.6525 H       1  UNL1        0.0227
      3 H          -2.3306   -0.3891    3.5423 H       1  UNL1        0.0227
      4 H          -1.5117   -0.4871    1.9853 H       1  UNL1        0.0227
@<TRIPOS>BOND
     1     4     1    1
     2     2     1    1
     3     1     3    1
