@<TRIPOS>MOLECULE
1
 4 3 0 0 0
SMALL
GASTEIGER

@<TRIPOS>ATOM
      1 C           1.7412    5.9096    2.7027 C.3     1  UNL1       -0.0681
      2 H           1.4902    6.9375    2.4017 H       1  UNL1        0.0227
      3 H           0.8587    5.5133    3.2323 H       1  UNL1        0.0227
      4 H           1.8490    5.3172    1.7839 H       1  UNL1        0.0227
@<TRIPOS>BOND
     1     4     1    1
     2     2     1    1
     3     1     3    1
