@<TRIPOS>MOLECULE
1
 4 3 0 0 0
SMALL
GASTEIGER

@<TRIPOS>ATOM
      1 C           3.2353    3.8844    4.5233 C.3     1  UNL1       -0.0681
      2 H           2.9886    3.1896    3.7083 H       1  UNL1        0.0227
      3 H           2.4593    3.7552    5.2925 H       1  UNL1        0.0227
      4 H           4.1823    3.5472    4.9675 H       1  UNL1        0.0227
@<TRIPOS>BOND
     1     2     1    1
     2     1     4    1
     3     1     3    1
