@<TRIPOS>MOLECULE
6
 46 45 0 0 0
SMALL
GASTEIGER

@<TRIPOS>ATOM
      1 B          -0.2768   15.8039   11.0195 B       1  UNL1        0.0000
      2 H          -1.2401   15.1693   11.3678 H       1  UNL1        0.0000
      3 N          -0.4224   17.1646   10.6927 N.3     1  UNL1        0.0000
      4 SI         -2.0272   17.7813   10.2294 Si      1  UNL1        0.0000
      5 SI          1.0130   18.2130   10.6423 Si      1  UNL1        0.0000
      6 C           1.0530   15.0166   10.9352 C.3     1  UNL1        0.0000
      7 H           1.8664   15.3900   10.3216 H       1  UNL1        0.0000
      8 C           1.2593   13.8478   11.6039 C.3     1  UNL1        0.0000
      9 H           0.6221   13.6107   12.4553 H       1  UNL1        0.0000
     10 C           2.5379   13.0410   11.5809 C.3     1  UNL1        0.0000
     11 C           3.3552   13.2717   10.3083 C.3     1  UNL1        0.0000
     12 H           3.7610   14.2803   10.2746 H       1  UNL1        0.0000
     13 H           2.7382   13.1073    9.4255 H       1  UNL1        0.0000
     14 H           4.1914   12.5768   10.2776 H       1  UNL1        0.0000
     15 C           2.2010   11.5502   11.6915 C.3     1  UNL1        0.0000
     16 H           1.6579   11.2212   10.8074 H       1  UNL1        0.0000
     17 H           1.5871   11.3536   12.5678 H       1  UNL1        0.0000
     18 H           3.1121   10.9617   11.7761 H       1  UNL1        0.0000
     19 C           3.3672   13.4637   12.8058 C.3     1  UNL1        0.0000
     20 H           3.5878   14.5285   12.7687 H       1  UNL1        0.0000
     21 H           4.3065   12.9159   12.8305 H       1  UNL1        0.0000
     22 H           2.8260   13.2575   13.7268 H       1  UNL1        0.0000
     23 C          -3.2682   16.3632    9.9598 C.3     1  UNL1        0.0000
     24 H          -3.5288   15.8601   10.8855 H       1  UNL1        0.0000
     25 H          -2.8780   15.6143    9.2749 H       1  UNL1        0.0000
     26 H          -4.1902   16.7486    9.5345 H       1  UNL1        0.0000
     27 C          -1.8538   18.6848    8.5625 C.3     1  UNL1        0.0000
     28 H          -1.4498   18.0221    7.8029 H       1  UNL1        0.0000
     29 H          -1.2078   19.5535    8.6193 H       1  UNL1        0.0000
     30 H          -2.8252   19.0237    8.2164 H       1  UNL1        0.0000
     31 C          -2.6991   18.8931   11.6284 C.3     1  UNL1        0.0000
     32 H          -2.4758   18.4825   12.6086 H       1  UNL1        0.0000
     33 H          -3.7777   18.9854   11.5491 H       1  UNL1        0.0000
     34 H          -2.2865   19.8946   11.5900 H       1  UNL1        0.0000
     35 C           0.5566   20.0091   11.0774 C.3     1  UNL1        0.0000
     36 H           0.1529   20.0874   12.0812 H       1  UNL1        0.0000
     37 H          -0.1641   20.4420   10.3946 H       1  UNL1        0.0000
     38 H           1.4500   20.6242   11.0381 H       1  UNL1        0.0000
     39 C           2.2447   17.6547   11.9966 C.3     1  UNL1        0.0000
     40 H           3.0829   17.1037   11.5829 H       1  UNL1        0.0000
     41 H           1.7692   17.0190   12.7366 H       1  UNL1        0.0000
     42 H           2.6560   18.5149   12.5159 H       1  UNL1        0.0000
     43 C           1.8155   18.1471    8.9129 C.3     1  UNL1        0.0000
     44 H           1.9426   17.1290    8.5577 H       1  UNL1        0.0000
     45 H           2.7944   18.6176    8.9232 H       1  UNL1        0.0000
     46 H           1.2121   18.6678    8.1761 H       1  UNL1        0.0000
@<TRIPOS>BOND
     1    28    27    1
     2    46    43    1
     3    30    27    1
     4    44    43    1
     5    27    29    1
     6    27     4    1
     7    43    45    1
     8    43     5    1
     9    25    23    1
    10    13    11    1
    11    26    23    1
    12    23     4    1
    13    23    24    1
    14     4     3    1
    15     4    31    1
    16    12    11    1
    17    14    11    1
    18    11    10    1
    19     7     6    1
    20    37    35    1
    21     5     3    1
    22     5    35    1
    23     5    39    1
    24     3     1    1
    25    16    15    1
    26     6     1    1
    27     6     8    1
    28     1     2    1
    29    38    35    1
    30    35    36    1
    31    33    31    1
    32    10     8    1
    33    10    15    1
    34    10    19    1
    35    40    39    1
    36    34    31    1
    37     8     9    1
    38    31    32    1
    39    15    18    1
    40    15    17    1
    41    39    42    1
    42    39    41    1
    43    20    19    1
    44    19    21    1
    45    19    22    1
