@<TRIPOS>MOLECULE
1
 4 3 0 0 0
SMALL
GASTEIGER

@<TRIPOS>ATOM
      1 C          11.9994    7.0273    9.1697 C.3     1  UNL1       -0.0681
      2 H          12.8042    6.4282    9.5935 H       1  UNL1        0.0227
      3 H          12.4301    7.9631    8.8173 H       1  UNL1        0.0227
      4 H          11.6191    6.4894    8.3034 H       1  UNL1        0.0227
@<TRIPOS>BOND
     1     4     1    1
     2     3     1    1
     3     1     2    1
