@<TRIPOS>MOLECULE
2
 21 20 0 0 0
SMALL
GASTEIGER

@<TRIPOS>ATOM
      1 SI          3.4851   11.5397   11.8786 Si      1  UNL1        0.0000
      2 C          -0.4654    4.4356    4.8392 C.1     1  UNL1        0.0000
      3 C          -0.0172    5.2860    5.5946 C.1     1  UNL1        0.0000
      4 C           0.4678    6.2045    6.4449 C.1     1  UNL1        0.0000
      5 C           0.9269    7.0130    7.2421 C.1     1  UNL1        0.0000
      6 C           1.4190    7.8910    8.1170 C.1     1  UNL1        0.0000
      7 C           1.8750    8.6877    8.9274 C.1     1  UNL1        0.0000
      8 C           2.3664    9.5597    9.8211 C.1     1  UNL1        0.0000
      9 C           2.8147   10.3484   10.6362 C.1     1  UNL1        0.0000
     10 C           2.0279   12.4877   12.6639 C.3     1  UNL1        0.0000
     11 C           4.4293   10.5604   13.2164 C.3     1  UNL1        0.0000
     12 C           4.6642   12.7535   10.9985 C.3     1  UNL1        0.0000
     13 H           1.4690   13.0393   11.9139 H       1  UNL1        0.0000
     14 H           1.3359   11.8089   13.1536 H       1  UNL1        0.0000
     15 H           2.3726   13.2003   13.4081 H       1  UNL1        0.0000
     16 H           3.7776    9.8507   13.7174 H       1  UNL1        0.0000
     17 H           5.2531    9.9996   12.7848 H       1  UNL1        0.0000
     18 H           4.8419   11.2204   13.9744 H       1  UNL1        0.0000
     19 H           5.0842   13.4743   11.6946 H       1  UNL1        0.0000
     20 H           5.4911   12.2281   10.5300 H       1  UNL1        0.0000
     21 H           4.1474   13.3089   10.2215 H       1  UNL1        0.0000
@<TRIPOS>BOND
     1     2     3    3
     2     3     4    1
     3     4     5    3
     4     5     6    1
     5     6     7    3
     6     7     8    1
     7     8     9    3
     8    21    12    1
     9    20    12    1
    10     9     1    1
    11    12    19    1
    12    12     1    1
    13     1    10    1
    14     1    11    1
    15    13    10    1
    16    10    14    1
    17    10    15    1
    18    17    11    1
    19    11    16    1
    20    11    18    1
