@<TRIPOS>MOLECULE
4
 20 19 0 0 0
SMALL
GASTEIGER

@<TRIPOS>ATOM
      1 SI         10.0990    3.4779    7.1052 Si      1  UNL1        0.0000
      2 C           8.6877    3.4413    5.8398 C.2     1  UNL1        0.0000
      3 H           7.7311    3.4043    6.3620 H       1  UNL1        0.0000
      4 C           8.6426    3.4541    4.5075 C.2     1  UNL1        0.0000
      5 C           9.8964    3.5242    3.6823 C.3     1  UNL1        0.0000
      6 H           9.8894    4.4219    3.0597 H       1  UNL1        0.0000
      7 H           9.9604    2.6677    3.0074 H       1  UNL1        0.0000
      8 H          10.7848    3.5398    4.3116 H       1  UNL1        0.0000
      9 C           9.7961    4.9671    8.2728 C.3     1  UNL1        0.0000
     10 H          10.4700    4.9324    9.1237 H       1  UNL1        0.0000
     11 H           8.7830    4.9684    8.6649 H       1  UNL1        0.0000
     12 H           9.9553    5.9162    7.7702 H       1  UNL1        0.0000
     13 C          11.9239    3.5876    6.5473 C.3     1  UNL1        0.0000
     14 H          12.2225    2.7330    5.9476 H       1  UNL1        0.0000
     15 H          12.5722    3.6106    7.4197 H       1  UNL1        0.0000
     16 H          12.1249    4.4876    5.9740 H       1  UNL1        0.0000
     17 C           9.9558    1.8960    8.1806 C.3     1  UNL1        0.0000
     18 H          10.2238    0.9997    7.6284 H       1  UNL1        0.0000
     19 H           8.9470    1.7596    8.5601 H       1  UNL1        0.0000
     20 H          10.6172    1.9548    9.0401 H       1  UNL1        0.0000
@<TRIPOS>BOND
     1     7     5    1
     2     6     5    1
     3     5     8    1
     4     5     4    1
     5     4     2    2
     6     2     3    1
     7     2     1    1
     8    14    13    1
     9    16    13    1
    10    13     1    1
    11    13    15    1
    12     1    17    1
    13     1     9    1
    14    18    17    1
    15    12     9    1
    16    17    19    1
    17    17    20    1
    18     9    11    1
    19     9    10    1
