@<TRIPOS>MOLECULE
1
 4 3 0 0 0
SMALL
GASTEIGER

@<TRIPOS>ATOM
      1 C          -1.5212    9.3189    5.4771 C.3     1  UNL1       -0.0681
      2 H          -1.3190   10.3070    5.0316 H       1  UNL1        0.0227
      3 H          -2.2579    9.5001    6.2771 H       1  UNL1        0.0227
      4 H          -0.5892    9.0196    5.9849 H       1  UNL1        0.0227
@<TRIPOS>BOND
     1     2     1    1
     2     1     4    1
     3     1     3    1
