@<TRIPOS>MOLECULE
1
 4 3 0 0 0
SMALL
GASTEIGER

@<TRIPOS>ATOM
      1 C          -2.9240    9.3194    2.3826 C.3     1  UNL1       -0.0681
      2 H          -3.1252   10.3076    2.8283 H       1  UNL1        0.0227
      3 H          -2.1878    9.5003    1.5820 H       1  UNL1        0.0227
      4 H          -3.8566    9.0207    1.8755 H       1  UNL1        0.0227
@<TRIPOS>BOND
     1     3     1    1
     2     4     1    1
     3     1     2    1
