@<TRIPOS>MOLECULE
1
 4 3 0 0 0
SMALL
GASTEIGER

@<TRIPOS>ATOM
      1 C          -2.9855    0.0170    2.2695 C.3     1  UNL1       -0.0681
      2 H          -3.9803    0.2800    1.8892 H       1  UNL1        0.0227
      3 H          -3.0780   -1.0110    2.6487 H       1  UNL1        0.0227
      4 H          -2.3394   -0.0551    1.3847 H       1  UNL1        0.0227
@<TRIPOS>BOND
     1     4     1    1
     2     2     1    1
     3     1     3    1
