@<TRIPOS>MOLECULE
1
 4 3 0 0 0
SMALL
GASTEIGER

@<TRIPOS>ATOM
      1 C          -1.4149    0.0171    5.5073 C.3     1  UNL1       -0.0681
      2 H          -0.4215    0.2809    5.8909 H       1  UNL1        0.0227
      3 H          -1.3210   -1.0104    5.1285 H       1  UNL1        0.0227
      4 H          -2.0632   -0.0560    6.3902 H       1  UNL1        0.0227
@<TRIPOS>BOND
     1     3     1    1
     2     1     2    1
     3     1     4    1
