@<TRIPOS>MOLECULE
2
 15 14 0 0 0
SMALL
GASTEIGER

@<TRIPOS>ATOM
      1 SI         16.9929    2.1425   -8.1629 Si      1  UNL1        0.0000
      2 C          18.3762    3.3280   -5.6905 C.1     1  UNL1        0.0000
      3 C          17.8211    2.8545   -6.6649 C.1     1  UNL1        0.0000
      4 C          18.2782    1.1820   -9.1965 C.3     1  UNL1        0.0000
      5 H          17.8300    0.7509  -10.0875 H       1  UNL1        0.0000
      6 H          18.7191    0.3735   -8.6218 H       1  UNL1        0.0000
      7 H          19.0859    1.8336   -9.5154 H       1  UNL1        0.0000
      8 C          16.2479    3.5630   -9.2006 C.3     1  UNL1        0.0000
      9 H          15.4886    4.1035   -8.6430 H       1  UNL1        0.0000
     10 H          15.7847    3.1918  -10.1107 H       1  UNL1        0.0000
     11 H          17.0132    4.2778   -9.4878 H       1  UNL1        0.0000
     12 C          15.5924    0.9611   -7.6153 C.3     1  UNL1        0.0000
     13 H          15.0268    0.5980   -8.4689 H       1  UNL1        0.0000
     14 H          14.8948    1.4594   -6.9483 H       1  UNL1        0.0000
     15 H          15.9843    0.0945   -7.0910 H       1  UNL1        0.0000
@<TRIPOS>BOND
     1    10     8    1
     2     5     4    1
     3     7     4    1
     4    11     8    1
     5     8     9    1
     6     8     1    1
     7     4     6    1
     8     4     1    1
     9    13    12    1
    10     1    12    1
    11     1     3    1
    12    12    15    1
    13    12    14    1
    14     3     2    3
