@<TRIPOS>MOLECULE
2
 15 14 0 0 0
SMALL
GASTEIGER

@<TRIPOS>ATOM
      1 SI         23.6160    4.9640   -6.5810 Si      1  UNL1        0.0000
      2 C          20.9689    4.4776   -5.1065 C.1     1  UNL1        0.0000
      3 C          22.0109    4.7042   -5.6927 C.1     1  UNL1        0.0000
      4 C          23.3913    4.5508   -8.4306 C.3     1  UNL1        0.0000
      5 H          24.3221    4.6612   -8.9802 H       1  UNL1        0.0000
      6 H          22.6567    5.2052   -8.8900 H       1  UNL1        0.0000
      7 H          23.0464    3.5301   -8.5638 H       1  UNL1        0.0000
      8 C          24.1799    6.7786   -6.3811 C.3     1  UNL1        0.0000
      9 H          23.4441    7.4649   -6.7895 H       1  UNL1        0.0000
     10 H          25.1203    6.9613   -6.8937 H       1  UNL1        0.0000
     11 H          24.3210    7.0350   -5.3352 H       1  UNL1        0.0000
     12 C          24.9325    3.8049   -5.8182 C.3     1  UNL1        0.0000
     13 H          25.9023    3.9408   -6.2887 H       1  UNL1        0.0000
     14 H          24.6551    2.7611   -5.9348 H       1  UNL1        0.0000
     15 H          25.0546    3.9937   -4.7556 H       1  UNL1        0.0000
@<TRIPOS>BOND
     1     5     4    1
     2     6     4    1
     3     7     4    1
     4     4     1    1
     5    10     8    1
     6     9     8    1
     7     1     8    1
     8     1    12    1
     9     1     3    1
    10     8    11    1
    11    13    12    1
    12    14    12    1
    13    12    15    1
    14     3     2    3
