@<TRIPOS>MOLECULE
2
 16 15 0 0 0
SMALL
GASTEIGER

@<TRIPOS>ATOM
      1 SI         -3.0737    2.6573   11.6644 Si      1  UNL1        0.0000
      2 C          -2.1421    1.3056   12.6018 C.3     1  UNL1        0.0000
      3 C          -4.6914    3.1720   12.5674 C.3     1  UNL1        0.0000
      4 C          -3.6848    1.9764    9.9806 C.3     1  UNL1        0.0000
      5 C          -2.0195    4.2366   11.4516 C.3     1  UNL1        0.0000
      6 H          -2.4857    0.3521   12.2080 H       1  UNL1        0.0000
      7 H          -2.4347    1.3290   13.6516 H       1  UNL1        0.0000
      8 H          -5.3765    3.6566   11.8783 H       1  UNL1        0.0000
      9 H          -4.5082    3.8666   13.3803 H       1  UNL1        0.0000
     10 H          -5.2026    2.3068   12.9785 H       1  UNL1        0.0000
     11 H          -2.9033    1.4740    9.4237 H       1  UNL1        0.0000
     12 H          -4.0824    2.7685    9.3530 H       1  UNL1        0.0000
     13 H          -4.4853    1.2596   10.1402 H       1  UNL1        0.0000
     14 H          -1.9781    4.7992   12.3799 H       1  UNL1        0.0000
     15 H          -2.4234    4.8993   10.6917 H       1  UNL1        0.0000
     16 H          -1.0001    3.9839   11.1762 H       1  UNL1        0.0000
@<TRIPOS>BOND
     1    12     4    1
     2    11     4    1
     3     4    13    1
     4     4     1    1
     5    15     5    1
     6    16     5    1
     7     5     1    1
     8     5    14    1
     9     1     3    1
    10     1     2    1
    11     8     3    1
    12     6     2    1
    13     3    10    1
    14     3     9    1
    15     2     7    1
