@<TRIPOS>MOLECULE
2
 16 15 0 0 0
SMALL
GASTEIGER

@<TRIPOS>ATOM
      1 SI          0.4779    1.4625    9.0297 Si      1  UNL1        0.0000
      2 C           1.2575    1.8330   10.7159 C.3     1  UNL1        0.0000
      3 C          -0.5780   -0.1342    9.0229 C.3     1  UNL1        0.0000
      4 C           1.8541    1.2569    7.7085 C.3     1  UNL1        0.0000
      5 C          -0.5469    2.9443    8.3755 C.3     1  UNL1        0.0000
      6 H           1.4011    2.9092   10.7843 H       1  UNL1        0.0000
      7 H           2.2536    1.3903   10.7287 H       1  UNL1        0.0000
      8 H          -1.1534   -0.2304    8.1065 H       1  UNL1        0.0000
      9 H          -1.2690   -0.1578    9.8611 H       1  UNL1        0.0000
     10 H           0.0573   -1.0107    9.1033 H       1  UNL1        0.0000
     11 H           1.4298    1.0839    6.7243 H       1  UNL1        0.0000
     12 H           2.5118    0.4261    7.9365 H       1  UNL1        0.0000
     13 H           2.4662    2.1516    7.6479 H       1  UNL1        0.0000
     14 H          -0.9238    2.7352    7.3785 H       1  UNL1        0.0000
     15 H           0.0809    3.8274    8.3055 H       1  UNL1        0.0000
     16 H          -1.3929    3.1913    9.0028 H       1  UNL1        0.0000
@<TRIPOS>BOND
     1    11     4    1
     2    14     5    1
     3    13     4    1
     4     4    12    1
     5     4     1    1
     6     8     3    1
     7    15     5    1
     8     5    16    1
     9     5     1    1
    10     3     1    1
    11     3    10    1
    12     3     9    1
    13     1     2    1
    14     2     7    1
    15     2     6    1
