@<TRIPOS>MOLECULE
2
 16 15 0 0 0
SMALL
GASTEIGER

@<TRIPOS>ATOM
      1 SI          2.7602    0.6367   15.2642 Si      1  UNL1        0.0000
      2 C           1.0374    0.2099   14.6138 C.3     1  UNL1        0.0000
      3 C           3.6965    1.8279   14.0949 C.3     1  UNL1        0.0000
      4 C           2.8033    1.5042   16.9727 C.3     1  UNL1        0.0000
      5 C           3.7886   -0.9703   15.4946 C.3     1  UNL1        0.0000
      6 H           0.2832    0.4625   15.3607 H       1  UNL1        0.0000
      7 H           0.9790   -0.8711   14.4630 H       1  UNL1        0.0000
      8 H           4.7473    1.5672   14.0051 H       1  UNL1        0.0000
      9 H           3.6423    2.8396   14.4861 H       1  UNL1        0.0000
     10 H           3.2578    1.8315   13.1002 H       1  UNL1        0.0000
     11 H           2.3516    2.4903   16.9195 H       1  UNL1        0.0000
     12 H           3.8308    1.6356   17.3003 H       1  UNL1        0.0000
     13 H           2.2932    0.9303   17.7411 H       1  UNL1        0.0000
     14 H           3.3559   -1.5964   16.2692 H       1  UNL1        0.0000
     15 H           4.8066   -0.7413   15.7948 H       1  UNL1        0.0000
     16 H           3.8422   -1.5681   14.5902 H       1  UNL1        0.0000
@<TRIPOS>BOND
     1    10     3    1
     2     8     3    1
     3     3     9    1
     4     3     1    1
     5     7     2    1
     6    16     5    1
     7     2     1    1
     8     2     6    1
     9     1     5    1
    10     1     4    1
    11     5    15    1
    12     5    14    1
    13    11     4    1
    14     4    12    1
    15     4    13    1
