@<TRIPOS>MOLECULE
1
 13 12 0 0 0
SMALL
GASTEIGER

@<TRIPOS>ATOM
      1 C           5.4143    6.1963    4.3359 C.3     1  UNL1       -0.0531
      2 C           6.7899    6.5962    3.7758 C.3     1  UNL1       -0.0533
      3 C           7.3245    7.8990    4.3896 C.3     1  UNL1       -0.0559
      4 C           8.6930    8.2789    3.8371 C.3     1  UNL1       -0.0653
      5 H           4.7466    7.0628    4.2121 H       1  UNL1        0.0265
      6 H           5.5269    6.0625    5.4231 H       1  UNL1        0.0265
      7 H           7.5195    5.8019    3.9711 H       1  UNL1        0.0265
      8 H           6.7267    6.7303    2.6887 H       1  UNL1        0.0265
      9 H           6.6171    8.7065    4.1871 H       1  UNL1        0.0263
     10 H           7.3914    7.7833    5.4744 H       1  UNL1        0.0263
     11 H           9.0476    9.2039    4.2866 H       1  UNL1        0.0230
     12 H           8.6425    8.4193    2.7595 H       1  UNL1        0.0230
     13 H           9.4197    7.4961    4.0450 H       1  UNL1        0.0230
@<TRIPOS>BOND
     1     8     2    1
     2    12     4    1
     3     2     7    1
     4     2     1    1
     5     2     3    1
     6     4    13    1
     7     4    11    1
     8     4     3    1
     9     9     3    1
    10     5     1    1
    11     1     6    1
    12     3    10    1
