@<TRIPOS>MOLECULE
1
 13 12 0 0 0
SMALL
GASTEIGER

@<TRIPOS>ATOM
      1 C           6.3760    3.2791    2.4741 C.3     1  UNL1       -0.0531
      2 C           6.0429    1.7861    2.6562 C.3     1  UNL1       -0.0533
      3 C           7.1322    0.8324    2.1288 C.3     1  UNL1       -0.0559
      4 C           7.2234    0.8084    0.6072 C.3     1  UNL1       -0.0653
      5 H           6.5741    3.4589    1.4070 H       1  UNL1        0.0265
      6 H           7.3315    3.4631    2.9918 H       1  UNL1        0.0265
      7 H           5.9135    1.5780    3.7243 H       1  UNL1        0.0265
      8 H           5.1023    1.5420    2.1476 H       1  UNL1        0.0265
      9 H           8.0984    1.1311    2.5435 H       1  UNL1        0.0263
     10 H           6.9217   -0.1813    2.4811 H       1  UNL1        0.0263
     11 H           7.9921    0.1097    0.2832 H       1  UNL1        0.0230
     12 H           7.4757    1.7910    0.2163 H       1  UNL1        0.0230
     13 H           6.2752    0.4959    0.1740 H       1  UNL1        0.0230
@<TRIPOS>BOND
     1    13     4    1
     2    12     4    1
     3    11     4    1
     4     4     3    1
     5     5     1    1
     6     3    10    1
     7     3     9    1
     8     3     2    1
     9     8     2    1
    10     1     2    1
    11     1     6    1
    12     2     7    1
