@<TRIPOS>MOLECULE
2
 15 14 0 0 0
SMALL
GASTEIGER

@<TRIPOS>ATOM
      1 SI          5.6955    8.6694    3.2542 Si      1  UNL1        0.0000
      2 C           5.0265    8.5252    4.9889 C.3     1  UNL1        0.0000
      3 C           4.5167    7.8467    1.9730 C.3     1  UNL1        0.0000
      4 C           5.9124   10.4888    2.6719 C.3     1  UNL1        0.0000
      5 C           7.3955    7.7904    3.1035 C.3     1  UNL1        0.0000
      6 H           3.9740    8.2115    4.9969 H       1  UNL1        0.0000
      7 H           3.5497    8.3406    1.9524 H       1  UNL1        0.0000
      8 H           4.3430    6.8001    2.2072 H       1  UNL1        0.0000
      9 H           4.9261    7.8918    0.9686 H       1  UNL1        0.0000
     10 H           6.5842   11.0240    3.3341 H       1  UNL1        0.0000
     11 H           4.9633   11.0173    2.6539 H       1  UNL1        0.0000
     12 H           6.3275   10.5325    1.6692 H       1  UNL1        0.0000
     13 H           7.2933    6.7715    2.7413 H       1  UNL1        0.0000
     14 H           7.8613    7.7569    4.0832 H       1  UNL1        0.0000
     15 H           8.0628    8.3111    2.4237 H       1  UNL1        0.0000
@<TRIPOS>BOND
     1     9     3    1
     2    12     4    1
     3     7     3    1
     4     3     8    1
     5     3     1    1
     6    15     5    1
     7    11     4    1
     8     4     1    1
     9     4    10    1
    10    13     5    1
    11     5     1    1
    12     5    14    1
    13     1     2    1
    14     2     6    1
