@<TRIPOS>MOLECULE
2
 16 15 0 0 0
SMALL
GASTEIGER

@<TRIPOS>ATOM
      1 SI          6.7744   11.1854   10.6989 Si      1  UNL1        0.0000
      2 C           6.9499   10.4448   12.4214 C.3     1  UNL1        0.0000
      3 C           4.9877   10.8976   10.0715 C.3     1  UNL1        0.0000
      4 C           7.9728   10.4147    9.4039 C.3     1  UNL1        0.0000
      5 C           7.2239   13.0505   10.7154 C.3     1  UNL1        0.0000
      6 H           7.8329   10.8730   12.9125 H       1  UNL1        0.0000
      7 H           7.1248    9.3626   12.3382 H       1  UNL1        0.0000
      8 H           4.3272   10.7316   10.9207 H       1  UNL1        0.0000
      9 H           4.9331   10.0215    9.4331 H       1  UNL1        0.0000
     10 H           4.6084   11.7398    9.5014 H       1  UNL1        0.0000
     11 H           9.0026   10.4395    9.7491 H       1  UNL1        0.0000
     12 H           7.9319   10.9598    8.4657 H       1  UNL1        0.0000
     13 H           7.7247    9.3802    9.1890 H       1  UNL1        0.0000
     14 H           8.3007   13.1906   10.7441 H       1  UNL1        0.0000
     15 H           6.8062   13.5476   11.5846 H       1  UNL1        0.0000
     16 H           6.8534   13.5590    9.8303 H       1  UNL1        0.0000
@<TRIPOS>BOND
     1    12     4    1
     2    13     4    1
     3     4    11    1
     4     4     1    1
     5     9     3    1
     6    10     3    1
     7    16     5    1
     8     3     1    1
     9     3     8    1
    10     1     5    1
    11     1     2    1
    12     5    14    1
    13     5    15    1
    14     7     2    1
    15     2     6    1
