@<TRIPOS>MOLECULE
2
 16 15 0 0 0
SMALL
GASTEIGER

@<TRIPOS>ATOM
      1 SI          8.0412   11.5239   15.9762 Si      1  UNL1        0.0000
      2 C           6.2849   10.8479   15.8068 C.3     1  UNL1        0.0000
      3 C           8.3904   12.0060   17.8031 C.3     1  UNL1        0.0000
      4 C           8.4072   13.0879   14.9299 C.3     1  UNL1        0.0000
      5 C           9.3752   10.2108   15.5454 C.3     1  UNL1        0.0000
      6 H           5.6094   11.4791   16.3934 H       1  UNL1        0.0000
      7 H           6.2623    9.8562   16.2726 H       1  UNL1        0.0000
      8 H           8.2515   11.1583   18.4675 H       1  UNL1        0.0000
      9 H           7.7221   12.7939   18.1367 H       1  UNL1        0.0000
     10 H           9.4074   12.3627   17.9336 H       1  UNL1        0.0000
     11 H           7.9589   13.9704   15.3755 H       1  UNL1        0.0000
     12 H           8.0178   12.9959   13.9199 H       1  UNL1        0.0000
     13 H           9.4768   13.2678   14.8596 H       1  UNL1        0.0000
     14 H           9.3393    9.3799   16.2443 H       1  UNL1        0.0000
     15 H          10.3717   10.6399   15.6048 H       1  UNL1        0.0000
     16 H           9.2572    9.8057   14.5442 H       1  UNL1        0.0000
@<TRIPOS>BOND
     1    12     4    1
     2    16     5    1
     3    13     4    1
     4     4    11    1
     5     4     1    1
     6     5    15    1
     7     5     1    1
     8     5    14    1
     9     2     1    1
    10     2     7    1
    11     2     6    1
    12     1     3    1
    13     3    10    1
    14     3     9    1
    15     3     8    1
