@<TRIPOS>MOLECULE
1
 5 4 0 0 0
SMALL
GASTEIGER

@<TRIPOS>ATOM
      1 C           5.9951    3.4250    3.3671 C.2     1  UNL1        0.2274
      2 C           6.3735    4.6723    3.1684 C.2     1  UNL1        0.3082
      3 F           7.0193    2.4916    3.3091 F       1  UNL1       -0.1967
      4 F           7.6037    5.1719    2.9381 F       1  UNL1       -0.1695
      5 F           5.4833    5.6804    3.1599 F       1  UNL1       -0.1695
@<TRIPOS>BOND
     1     4     2    1
     2     5     2    1
     3     2     1    2
     4     3     1    1
