@<TRIPOS>MOLECULE
1
 17 17 0 0 0
SMALL
GASTEIGER

@<TRIPOS>ATOM
      1 C           3.6575   -2.7621   -5.6984 C.3     1  UNL1       -0.0488
      2 C           3.3150   -3.3476   -7.0932 C.3     1  UNL1       -0.0277
      3 C           4.5357   -3.9914   -7.6955 C.ar    1  UNL1       -0.0474
      4 C           5.4886   -3.2277   -8.3583 C.ar    1  UNL1       -0.0586
      5 C           6.6411   -3.8109   -8.8532 C.ar    1  UNL1       -0.0615
      6 C           6.8595   -5.1683   -8.6889 C.ar    1  UNL1       -0.0617
      7 C           5.9168   -5.9385   -8.0295 C.ar    1  UNL1       -0.0615
      8 C           4.7642   -5.3529   -7.5370 C.ar    1  UNL1       -0.0586
      9 H           4.2993   -1.8810   -5.8759 H       1  UNL1        0.0268
     10 H           4.3163   -3.4998   -5.1996 H       1  UNL1        0.0268
     11 H           2.9652   -2.5484   -7.7533 H       1  UNL1        0.0313
     12 H           2.5236   -4.1056   -7.0196 H       1  UNL1        0.0313
     13 H           5.3216   -2.1679   -8.4886 H       1  UNL1        0.0620
     14 H           7.3715   -3.2052   -9.3700 H       1  UNL1        0.0618
     15 H           7.7590   -5.6244   -9.0754 H       1  UNL1        0.0618
     16 H           6.0794   -6.9991   -7.9008 H       1  UNL1        0.0618
     17 H           4.0254   -5.9570   -7.0288 H       1  UNL1        0.0620
@<TRIPOS>BOND
     1    14     5    1
     2    15     6    1
     3     5     6   ar
     4     5     4   ar
     5     6     7   ar
     6    13     4    1
     7     4     3   ar
     8     7    16    1
     9     7     8   ar
    10    11     2    1
    11     3     8   ar
    12     3     2    1
    13     8    17    1
    14     2    12    1
    15     2     1    1
    16     9     1    1
    17     1    10    1
