@<TRIPOS>MOLECULE
1
 17 17 0 0 0
SMALL
GASTEIGER

@<TRIPOS>ATOM
      1 C           1.1508   -1.1231   -6.0962 C.3     1  UNL1       -0.0488
      2 C           0.1467   -0.0826   -5.5290 C.3     1  UNL1       -0.0277
      3 C          -0.4422    0.7310   -6.6498 C.ar    1  UNL1       -0.0474
      4 C          -1.5661    0.2812   -7.3327 C.ar    1  UNL1       -0.0586
      5 C          -2.0748    0.9923   -8.4045 C.ar    1  UNL1       -0.0615
      6 C          -1.4635    2.1662   -8.8115 C.ar    1  UNL1       -0.0617
      7 C          -0.3431    2.6235   -8.1388 C.ar    1  UNL1       -0.0615
      8 C           0.1634    1.9100   -7.0672 C.ar    1  UNL1       -0.0586
      9 H           1.9054   -0.5462   -6.6581 H       1  UNL1        0.0268
     10 H           0.5994   -1.7055   -6.8628 H       1  UNL1        0.0268
     11 H           0.6646    0.5820   -4.8279 H       1  UNL1        0.0313
     12 H          -0.6591   -0.6047   -4.9986 H       1  UNL1        0.0313
     13 H          -2.0461   -0.6345   -7.0155 H       1  UNL1        0.0620
     14 H          -2.9514    0.6319   -8.9239 H       1  UNL1        0.0618
     15 H          -1.8600    2.7228   -9.6479 H       1  UNL1        0.0618
     16 H           0.1363    3.5406   -8.4501 H       1  UNL1        0.0618
     17 H           1.0364    2.2708   -6.5417 H       1  UNL1        0.0620
@<TRIPOS>BOND
     1    15     6    1
     2    14     5    1
     3     6     5   ar
     4     6     7   ar
     5    16     7    1
     6     5     4   ar
     7     7     8   ar
     8     4    13    1
     9     4     3   ar
    10     8     3   ar
    11     8    17    1
    12    10     1    1
    13     9     1    1
    14     3     2    1
    15     1     2    1
    16     2    12    1
    17     2    11    1
