@<TRIPOS>MOLECULE
2
 16 15 0 0 0
SMALL
GASTEIGER

@<TRIPOS>ATOM
      1 SI          5.4497   16.0230   11.3558 Si      1  UNL1        0.0000
      2 C           4.7904   16.3040   13.1020 C.3     1  UNL1        0.0000
      3 C           7.2931   15.5005   11.3464 C.3     1  UNL1        0.0000
      4 C           4.4845   14.6376   10.4466 C.3     1  UNL1        0.0000
      5 C           5.3402   17.5894   10.2499 C.3     1  UNL1        0.0000
      6 H           4.0700   17.1331   13.0636 H       1  UNL1        0.0000
      7 H           5.6224   16.6869   13.7104 H       1  UNL1        0.0000
      8 H           7.6677   15.4387   10.3293 H       1  UNL1        0.0000
      9 H           7.4376   14.5289   11.8068 H       1  UNL1        0.0000
     10 H           7.9134   16.2180   11.8756 H       1  UNL1        0.0000
     11 H           3.5642   15.0109   10.0056 H       1  UNL1        0.0000
     12 H           4.2314   13.8279   11.1268 H       1  UNL1        0.0000
     13 H           5.0764   14.2173    9.6386 H       1  UNL1        0.0000
     14 H           4.3308   17.9887   10.2110 H       1  UNL1        0.0000
     15 H           5.6466   17.3736    9.2308 H       1  UNL1        0.0000
     16 H           5.9852   18.3776   10.6254 H       1  UNL1        0.0000
@<TRIPOS>BOND
     1    15     5    1
     2    13     4    1
     3    11     4    1
     4    14     5    1
     5     5    16    1
     6     5     1    1
     7     8     3    1
     8     4    12    1
     9     4     1    1
    10     3     1    1
    11     3     9    1
    12     3    10    1
    13     1     2    1
    14     6     2    1
    15     2     7    1
