@<TRIPOS>MOLECULE
2
 16 15 0 0 0
SMALL
GASTEIGER

@<TRIPOS>ATOM
      1 SI          3.3266    7.1681   -1.4248 Si      1  UNL1        0.0000
      2 C           2.2016    5.8062   -0.7596 C.3     1  UNL1        0.0000
      3 C           5.0739    7.0931   -0.6317 C.3     1  UNL1        0.0000
      4 C           2.6013    8.9161   -1.0917 C.3     1  UNL1        0.0000
      5 C           3.5884    7.0942   -3.3239 C.3     1  UNL1        0.0000
      6 H           1.8807    5.1841   -1.6070 H       1  UNL1        0.0000
      7 H           1.2753    6.2817   -0.4088 H       1  UNL1        0.0000
      8 H           5.0636    6.5902    0.3329 H       1  UNL1        0.0000
      9 H           5.4904    8.0866   -0.4884 H       1  UNL1        0.0000
     10 H           5.7642    6.5508   -1.2705 H       1  UNL1        0.0000
     11 H           2.3461    9.0682   -0.0472 H       1  UNL1        0.0000
     12 H           1.6968    9.0732   -1.6712 H       1  UNL1        0.0000
     13 H           3.3062    9.6931   -1.3724 H       1  UNL1        0.0000
     14 H           2.6424    7.0397   -3.8545 H       1  UNL1        0.0000
     15 H           4.1812    6.2336   -3.6173 H       1  UNL1        0.0000
     16 H           4.1075    7.9807   -3.6750 H       1  UNL1        0.0000
@<TRIPOS>BOND
     1    14     5    1
     2    16     5    1
     3    15     5    1
     4     5     1    1
     5    12     4    1
     6     6     2    1
     7     1     4    1
     8     1     2    1
     9     1     3    1
    10    13     4    1
    11    10     3    1
    12     4    11    1
    13     2     7    1
    14     3     9    1
    15     3     8    1
