@<TRIPOS>MOLECULE
2
 16 15 0 0 0
SMALL
GASTEIGER

@<TRIPOS>ATOM
      1 SI         -0.8003    7.8894    6.0212 Si      1  UNL1        0.0000
      2 C          -1.3326    8.2594    4.2507 C.3     1  UNL1        0.0000
      3 C           1.0316    7.3140    6.0354 C.3     1  UNL1        0.0000
      4 C          -1.9494    6.6232    6.9032 C.3     1  UNL1        0.0000
      5 C          -0.8808    9.4651    7.1259 C.3     1  UNL1        0.0000
      6 H          -0.5574    8.9128    3.8290 H       1  UNL1        0.0000
      7 H          -2.2585    8.8482    4.2759 H       1  UNL1        0.0000
      8 H           1.6858    8.1215    6.3492 H       1  UNL1        0.0000
      9 H           1.2033    6.4824    6.7124 H       1  UNL1        0.0000
     10 H           1.3433    7.0120    5.0382 H       1  UNL1        0.0000
     11 H          -2.0967    6.8894    7.9454 H       1  UNL1        0.0000
     12 H          -1.5476    5.6156    6.8811 H       1  UNL1        0.0000
     13 H          -2.9276    6.5934    6.4299 H       1  UNL1        0.0000
     14 H          -1.9002    9.8238    7.2324 H       1  UNL1        0.0000
     15 H          -0.4986    9.2699    8.1231 H       1  UNL1        0.0000
     16 H          -0.2924   10.2744    6.7047 H       1  UNL1        0.0000
@<TRIPOS>BOND
     1     6     2    1
     2     2     7    1
     3     2     1    1
     4    10     3    1
     5     1     3    1
     6     1     4    1
     7     1     5    1
     8     3     8    1
     9     3     9    1
    10    13     4    1
    11    16     5    1
    12    12     4    1
    13     4    11    1
    14     5    14    1
    15     5    15    1
