@<TRIPOS>MOLECULE
2
 16 15 0 0 0
SMALL
GASTEIGER

@<TRIPOS>ATOM
      1 SI          8.9961    0.1263    5.0597 Si      1  UNL1        0.0000
      2 C           9.7490    0.3920    3.3531 C.3     1  UNL1        0.0000
      3 H           8.9672    0.7167    2.6540 H       1  UNL1        0.0000
      4 H          10.1049   -0.5739    2.9732 H       1  UNL1        0.0000
      5 C          10.2973    0.3892    6.4417 C.3     1  UNL1        0.0000
      6 H          11.0692   -0.3748    6.3999 H       1  UNL1        0.0000
      7 H           9.8449    0.3389    7.4283 H       1  UNL1        0.0000
      8 H          10.7820    1.3614    6.3524 H       1  UNL1        0.0000
      9 C           7.5518    1.3433    5.3874 C.3     1  UNL1        0.0000
     10 H           7.9079    2.3657    5.4612 H       1  UNL1        0.0000
     11 H           7.0474    1.1077    6.3190 H       1  UNL1        0.0000
     12 H           6.8092    1.3016    4.5967 H       1  UNL1        0.0000
     13 C           8.2916   -1.6426    5.3174 C.3     1  UNL1        0.0000
     14 H           7.5072   -1.8657    4.6010 H       1  UNL1        0.0000
     15 H           7.8738   -1.7688    6.3111 H       1  UNL1        0.0000
     16 H           9.0701   -2.3893    5.1937 H       1  UNL1        0.0000
@<TRIPOS>BOND
     1     3     2    1
     2     4     2    1
     3     2     1    1
     4    12     9    1
     5    14    13    1
     6     1    13    1
     7     1     9    1
     8     1     5    1
     9    16    13    1
    10    13    15    1
    11     9    10    1
    12     9    11    1
    13     8     5    1
    14     6     5    1
    15     5     7    1
