@<TRIPOS>MOLECULE
2
 16 15 0 0 0
SMALL
GASTEIGER

@<TRIPOS>ATOM
      1 SI         11.0267   13.0329   13.1836 Si      1  UNL1        0.0000
      2 C          10.9003   14.8960   12.9559 C.3     1  UNL1        0.0000
      3 H          10.9030   15.1312   11.8837 H       1  UNL1        0.0000
      4 H          11.8281   15.3401   13.3427 H       1  UNL1        0.0000
      5 C           9.9221   12.0747   11.9377 C.3     1  UNL1        0.0000
      6 H           8.8745   12.3424   12.0352 H       1  UNL1        0.0000
      7 H           9.9984   11.0039   12.0976 H       1  UNL1        0.0000
      8 H          10.2238   12.2691   10.9130 H       1  UNL1        0.0000
      9 C          12.7942   12.3195   12.9642 C.3     1  UNL1        0.0000
     10 H          13.1672   12.4916   11.9594 H       1  UNL1        0.0000
     11 H          12.8273   11.2498   13.1480 H       1  UNL1        0.0000
     12 H          13.4883   12.7914   13.6529 H       1  UNL1        0.0000
     13 C          10.4477   12.5388   14.9434 C.3     1  UNL1        0.0000
     14 H          11.1469   12.8964   15.6935 H       1  UNL1        0.0000
     15 H          10.3777   11.4608   15.0567 H       1  UNL1        0.0000
     16 H           9.4735   12.9649   15.1771 H       1  UNL1        0.0000
@<TRIPOS>BOND
     1     8     5    1
     2     3     2    1
     3     5     6    1
     4     5     7    1
     5     5     1    1
     6    10     9    1
     7     2     1    1
     8     2     4    1
     9     9    11    1
    10     9     1    1
    11     9    12    1
    12     1    13    1
    13    13    15    1
    14    13    16    1
    15    13    14    1
