@<TRIPOS>MOLECULE
2
 16 15 0 0 0
SMALL
GASTEIGER

@<TRIPOS>ATOM
      1 SI         13.1290    3.9388    0.9525 Si      1  UNL1        0.0000
      2 C          11.9812    2.4568    1.0969 C.3     1  UNL1        0.0000
      3 H          12.4426    1.6079    0.5778 H       1  UNL1        0.0000
      4 H          11.0462    2.6596    0.5600 H       1  UNL1        0.0000
      5 C          14.7587    3.5365    1.8747 C.3     1  UNL1        0.0000
      6 H          14.6066    3.5533    2.9512 H       1  UNL1        0.0000
      7 H          15.5436    4.2492    1.6394 H       1  UNL1        0.0000
      8 H          15.1241    2.5485    1.6076 H       1  UNL1        0.0000
      9 C          12.3304    5.4857    1.7541 C.3     1  UNL1        0.0000
     10 H          11.4886    5.8415    1.1680 H       1  UNL1        0.0000
     11 H          13.0399    6.3038    1.8330 H       1  UNL1        0.0000
     12 H          11.9677    5.2627    2.7538 H       1  UNL1        0.0000
     13 C          13.6039    4.4373   -0.8413 C.3     1  UNL1        0.0000
     14 H          14.1283    3.6309   -1.3445 H       1  UNL1        0.0000
     15 H          14.2499    5.3097   -0.8611 H       1  UNL1        0.0000
     16 H          12.7228    4.6701   -1.4311 H       1  UNL1        0.0000
@<TRIPOS>BOND
     1    16    13    1
     2    14    13    1
     3    15    13    1
     4    13     1    1
     5     4     2    1
     6     3     2    1
     7     1     2    1
     8     1     9    1
     9     1     5    1
    10    10     9    1
    11     8     5    1
    12     7     5    1
    13     9    11    1
    14     9    12    1
    15     5     6    1
