@<TRIPOS>MOLECULE
2
 16 15 0 0 0
SMALL
GASTEIGER

@<TRIPOS>ATOM
      1 SI          7.8418   15.4920   17.4598 Si      1  UNL1        0.0000
      2 C           9.2996   15.9694   16.3729 C.3     1  UNL1        0.0000
      3 H          10.1401   15.3102   16.6247 H       1  UNL1        0.0000
      4 H           9.6088   16.9739   16.6948 H       1  UNL1        0.0000
      5 C           7.2462   13.7049   17.1044 C.3     1  UNL1        0.0000
      6 H           7.0345   13.5659   16.0505 H       1  UNL1        0.0000
      7 H           6.3437   13.4698   17.6610 H       1  UNL1        0.0000
      8 H           8.0012   12.9793   17.3891 H       1  UNL1        0.0000
      9 C           8.2112   15.5469   19.3437 C.3     1  UNL1        0.0000
     10 H           9.0070   14.8569   19.6070 H       1  UNL1        0.0000
     11 H           7.3409   15.2840   19.9377 H       1  UNL1        0.0000
     12 H           8.5270   16.5398   19.6489 H       1  UNL1        0.0000
     13 C           6.3756   16.6904   17.1780 C.3     1  UNL1        0.0000
     14 H           6.5911   17.6654   17.6032 H       1  UNL1        0.0000
     15 H           5.4597   16.3296   17.6363 H       1  UNL1        0.0000
     16 H           6.1848   16.8400   16.1197 H       1  UNL1        0.0000
@<TRIPOS>BOND
     1     6     5    1
     2    16    13    1
     3     2     3    1
     4     2     4    1
     5     2     1    1
     6     5     8    1
     7     5     1    1
     8     5     7    1
     9    13     1    1
    10    13    14    1
    11    13    15    1
    12     1     9    1
    13     9    10    1
    14     9    12    1
    15     9    11    1
