@<TRIPOS>MOLECULE
2
 16 15 0 0 0
SMALL
GASTEIGER

@<TRIPOS>ATOM
      1 SI          6.4959    0.4685    3.0424 Si      1  UNL1        0.0000
      2 C           5.0001    1.3991    2.2936 C.3     1  UNL1        0.0000
      3 H           4.1758    0.6767    2.2116 H       1  UNL1        0.0000
      4 H           5.2472    1.7589    1.2877 H       1  UNL1        0.0000
      5 C           7.5092    1.3243    4.4225 C.3     1  UNL1        0.0000
      6 H           7.9495    2.2627    4.0951 H       1  UNL1        0.0000
      7 H           8.3253    0.6743    4.7260 H       1  UNL1        0.0000
      8 H           6.9008    1.5128    5.3017 H       1  UNL1        0.0000
      9 C           5.9509   -1.2482    3.6815 C.3     1  UNL1        0.0000
     10 H           5.2738   -1.1544    4.5245 H       1  UNL1        0.0000
     11 H           6.8091   -1.8266    4.0099 H       1  UNL1        0.0000
     12 H           5.4450   -1.8213    2.9093 H       1  UNL1        0.0000
     13 C           7.6928    0.2150    1.5682 C.3     1  UNL1        0.0000
     14 H           7.2354   -0.3771    0.7823 H       1  UNL1        0.0000
     15 H           8.5873   -0.3063    1.8905 H       1  UNL1        0.0000
     16 H           7.9991    1.1595    1.1292 H       1  UNL1        0.0000
@<TRIPOS>BOND
     1    14    13    1
     2    16    13    1
     3     4     2    1
     4    13    15    1
     5    13     1    1
     6     3     2    1
     7     2     1    1
     8    12     9    1
     9     1     9    1
    10     1     5    1
    11     9    11    1
    12     9    10    1
    13     6     5    1
    14     5     7    1
    15     5     8    1
