@<TRIPOS>MOLECULE
2
 16 15 0 0 0
SMALL
GASTEIGER

@<TRIPOS>ATOM
      1 SI          0.9695    1.2777    3.5361 Si      1  UNL1        0.0000
      2 C           1.9597    2.9145    3.4757 C.3     1  UNL1        0.0000
      3 H           1.8367    3.4054    4.4516 H       1  UNL1        0.0000
      4 H           1.5482    3.5738    2.7021 H       1  UNL1        0.0000
      5 C           1.7843   -0.3098    2.8438 C.3     1  UNL1        0.0000
      6 H           2.0472   -0.2184    1.7931 H       1  UNL1        0.0000
      7 H           1.0882   -1.1396    2.9306 H       1  UNL1        0.0000
      8 H           2.6756   -0.5742    3.4046 H       1  UNL1        0.0000
      9 C          -0.5801    1.6082    2.4597 C.3     1  UNL1        0.0000
     10 H          -1.1762    2.4215    2.8605 H       1  UNL1        0.0000
     11 H          -1.2122    0.7279    2.4230 H       1  UNL1        0.0000
     12 H          -0.3150    1.8693    1.4397 H       1  UNL1        0.0000
     13 C           0.4014    0.9220    5.3260 C.3     1  UNL1        0.0000
     14 H           1.2507    0.7344    5.9753 H       1  UNL1        0.0000
     15 H          -0.2398    0.0464    5.3597 H       1  UNL1        0.0000
     16 H          -0.1588    1.7552    5.7416 H       1  UNL1        0.0000
@<TRIPOS>BOND
     1    12     9    1
     2     6     5    1
     3    11     9    1
     4     9    10    1
     5     9     1    1
     6     4     2    1
     7     5     7    1
     8     5     8    1
     9     5     1    1
    10     2     1    1
    11     2     3    1
    12     1    13    1
    13    13    15    1
    14    13    16    1
    15    13    14    1
