@<TRIPOS>MOLECULE
2
 16 15 0 0 0
SMALL
GASTEIGER

@<TRIPOS>ATOM
      1 SI          4.5782    4.5223    6.3816 Si      1  UNL1        0.0000
      2 C           5.1490    4.1456    4.5940 C.3     1  UNL1        0.0000
      3 H           6.0695    3.5489    4.6644 H       1  UNL1        0.0000
      4 H           5.3813    5.0792    4.0678 H       1  UNL1        0.0000
      5 C           2.7183    4.3441    6.7980 C.3     1  UNL1        0.0000
      6 H           2.0912    4.9925    6.1915 H       1  UNL1        0.0000
      7 H           2.5536    4.6167    7.8369 H       1  UNL1        0.0000
      8 H           2.3817    3.3193    6.6744 H       1  UNL1        0.0000
      9 C           5.0228    6.3656    6.6541 C.3     1  UNL1        0.0000
     10 H           6.0914    6.5332    6.5676 H       1  UNL1        0.0000
     11 H           4.7217    6.6864    7.6452 H       1  UNL1        0.0000
     12 H           4.5314    7.0112    5.9327 H       1  UNL1        0.0000
     13 C           5.5729    3.4699    7.6287 C.3     1  UNL1        0.0000
     14 H           5.3489    2.4141    7.5152 H       1  UNL1        0.0000
     15 H           5.3307    3.7512    8.6491 H       1  UNL1        0.0000
     16 H           6.6439    3.5998    7.4980 H       1  UNL1        0.0000
@<TRIPOS>BOND
     1     4     2    1
     2     2     3    1
     3     2     1    1
     4    12     9    1
     5     6     5    1
     6     1     9    1
     7     1     5    1
     8     1    13    1
     9    10     9    1
    10     9    11    1
    11     8     5    1
    12     5     7    1
    13    16    13    1
    14    14    13    1
    15    13    15    1
