@<TRIPOS>MOLECULE
2
 27 29 0 0 0
SMALL
GASTEIGER

@<TRIPOS>ATOM
      1 N           6.0442    9.1228    4.2574 N.3     1  UNL1       -0.2211
      2 C           6.1152    8.0591    4.7478 C.3     1  UNL1        0.1073
      3 C           6.1296   10.3724    3.6237 C.3     1  UNL1        0.0382
      4 C           6.5041   13.2718    3.7465 C.3     1  UNL1       -0.0472
      5 H           6.5789   14.2489    3.2639 H       1  UNL1        0.0271
      6 H           6.6255   13.4197    4.8221 H       1  UNL1        0.0271
      7 C           5.9602   10.1883    2.1100 C.3     1  UNL1       -0.0303
      8 H           4.9874    9.7341    1.9054 H       1  UNL1        0.0286
      9 H           6.7323    9.5110    1.7410 H       1  UNL1        0.0286
     10 C           7.5008   10.9917    3.9183 C.3     1  UNL1       -0.0303
     11 H           8.2819   10.3143    3.5679 H       1  UNL1        0.0286
     12 H           7.6198   11.1084    4.9981 H       1  UNL1        0.0286
     13 C           5.0261   11.2977    4.1513 C.3     1  UNL1       -0.0303
     14 H           5.1332   11.4138    5.2323 H       1  UNL1        0.0286
     15 H           4.0486   10.8492    3.9573 H       1  UNL1        0.0286
     16 C           5.1361   12.6547    3.4564 C.3     1  UNL1       -0.0388
     17 H           4.3485   13.3166    3.8345 H       1  UNL1        0.0302
     18 C           6.0673   11.5484    1.4229 C.3     1  UNL1       -0.0388
     19 H           5.9474   11.4157    0.3417 H       1  UNL1        0.0302
     20 C           7.4377   12.1595    1.7132 C.3     1  UNL1       -0.0472
     21 H           8.2243   11.5038    1.3335 H       1  UNL1        0.0271
     22 H           7.5295   13.1232    1.2070 H       1  UNL1        0.0271
     23 C           7.6017   12.3463    3.2211 C.3     1  UNL1       -0.0388
     24 H           8.5828   12.7873    3.4305 H       1  UNL1        0.0302
     25 C           4.9697   12.4738    1.9478 C.3     1  UNL1       -0.0472
     26 H           3.9876   12.0476    1.7295 H       1  UNL1        0.0271
     27 H           5.0315   13.4438    1.4494 H       1  UNL1        0.0271
@<TRIPOS>BOND
     1    19    18    1
     2    22    20    1
     3    21    20    1
     4    18    20    1
     5    18    25    1
     6    18     7    1
     7    27    25    1
     8    20    23    1
     9    26    25    1
    10     9     7    1
    11     8     7    1
    12    25    16    1
    13     7     3    1
    14    23    24    1
    15    23     4    1
    16    23    10    1
    17     5     4    1
    18    16     4    1
    19    16    17    1
    20    16    13    1
    21    11    10    1
    22     3    10    1
    23     3    13    1
    24     3     1    1
    25     4     6    1
    26    10    12    1
    27    15    13    1
    28    13    14    1
    29     1     2    1
