@<TRIPOS>MOLECULE
2
 27 29 0 0 0
SMALL
GASTEIGER

@<TRIPOS>ATOM
      1 N           5.9081    3.8747    3.9962 N.3     1  UNL1       -0.2211
      2 C           6.0728    4.8513    4.6270 C.3     1  UNL1        0.1073
      3 C           5.7834    2.7474    3.1705 C.3     1  UNL1        0.0382
      4 C           4.3017    2.5119    2.8483 C.3     1  UNL1       -0.0303
      5 H           3.8935    3.3947    2.3504 H       1  UNL1        0.0286
      6 H           3.7454    2.3629    3.7771 H       1  UNL1        0.0286
      7 C           4.9467    1.5169    0.6497 C.3     1  UNL1       -0.0472
      8 H           4.5387    2.3824    0.1225 H       1  UNL1        0.0271
      9 H           4.8434    0.6476   -0.0037 H       1  UNL1        0.0271
     10 C           4.1727    1.2846    1.9471 C.3     1  UNL1       -0.0388
     11 H           3.1141    1.1176    1.7170 H       1  UNL1        0.0302
     12 C           4.7381    0.0594    2.6650 C.3     1  UNL1       -0.0472
     13 H           4.1803   -0.1231    3.5865 H       1  UNL1        0.0271
     14 H           4.6331   -0.8232    2.0301 H       1  UNL1        0.0271
     15 C           6.4222    1.7524    0.9729 C.3     1  UNL1       -0.0388
     16 H           6.9775    1.9208    0.0436 H       1  UNL1        0.0302
     17 C           6.3496    1.5182    3.8928 C.3     1  UNL1       -0.0303
     18 H           5.8051    1.3629    4.8275 H       1  UNL1        0.0286
     19 H           7.3975    1.6966    4.1399 H       1  UNL1        0.0286
     20 C           6.2136    0.2954    2.9875 C.3     1  UNL1       -0.0388
     21 H           6.6195   -0.5817    3.5041 H       1  UNL1        0.0302
     22 C           6.5579    2.9824    1.8679 C.3     1  UNL1       -0.0303
     23 H           7.6068    3.1767    2.1005 H       1  UNL1        0.0286
     24 H           6.1595    3.8672    1.3656 H       1  UNL1        0.0286
     25 C           6.9911    0.5302    1.6928 C.3     1  UNL1       -0.0472
     26 H           6.9149   -0.3491    1.0491 H       1  UNL1        0.0271
     27 H           8.0475    0.6914    1.9183 H       1  UNL1        0.0271
@<TRIPOS>BOND
     1     9     7    1
     2    16    15    1
     3     8     7    1
     4     7    15    1
     5     7    10    1
     6    15    25    1
     7    15    22    1
     8    26    25    1
     9    24    22    1
    10    25    27    1
    11    25    20    1
    12    11    10    1
    13    22    23    1
    14    22     3    1
    15    10    12    1
    16    10     4    1
    17    14    12    1
    18     5     4    1
    19    12    20    1
    20    12    13    1
    21     4     3    1
    22     4     6    1
    23    20    21    1
    24    20    17    1
    25     3    17    1
    26     3     1    1
    27    17    19    1
    28    17    18    1
    29     1     2    1
