@<TRIPOS>MOLECULE
2
 27 29 0 0 0
SMALL
GASTEIGER

@<TRIPOS>ATOM
      1 N           3.3751    6.2511    6.1993 N.3     1  UNL1       -0.2211
      2 C           4.5252    6.3374    5.9825 C.3     1  UNL1        0.1073
      3 C           1.9825    6.0938    6.2905 C.3     1  UNL1        0.0382
      4 C           1.5712    4.7936    5.5870 C.3     1  UNL1       -0.0303
      5 H           2.0806    3.9501    6.0587 H       1  UNL1        0.0286
      6 H           1.8858    4.8323    4.5415 H       1  UNL1        0.0286
      7 C           0.0558    4.6266    5.6860 C.3     1  UNL1       -0.0388
      8 H          -0.2369    3.6980    5.1833 H       1  UNL1        0.0302
      9 C           1.5688    6.0310    7.7657 C.3     1  UNL1       -0.0303
     10 H           1.8790    6.9494    8.2694 H       1  UNL1        0.0286
     11 H           2.0777    5.1946    8.2501 H       1  UNL1        0.0286
     12 C           0.0534    5.8588    7.8560 C.3     1  UNL1       -0.0388
     13 H          -0.2411    5.8140    8.9105 H       1  UNL1        0.0302
     14 C          -0.2247    7.1060    5.7128 C.3     1  UNL1       -0.0388
     15 H          -0.7186    7.9563    5.2294 H       1  UNL1        0.0302
     16 C          -0.3572    4.5634    7.1563 C.3     1  UNL1       -0.0472
     17 H           0.1224    3.7103    7.6414 H       1  UNL1        0.0271
     18 H          -1.4383    4.4275    7.2321 H       1  UNL1        0.0271
     19 C          -0.6372    7.0448    7.1833 C.3     1  UNL1       -0.0472
     20 H          -0.3574    7.9729    7.6870 H       1  UNL1        0.0271
     21 H          -1.7212    6.9357    7.2604 H       1  UNL1        0.0271
     22 C           1.2895    7.2835    5.6137 C.3     1  UNL1       -0.0303
     23 H           1.6012    7.3364    4.5680 H       1  UNL1        0.0286
     24 H           1.5986    8.2100    6.1028 H       1  UNL1        0.0286
     25 C          -0.6351    5.8114    5.0115 C.3     1  UNL1       -0.0472
     26 H          -1.7190    5.6882    5.0650 H       1  UNL1        0.0271
     27 H          -0.3545    5.8546    3.9567 H       1  UNL1        0.0271
@<TRIPOS>BOND
     1    27    25    1
     2     6     4    1
     3    23    22    1
     4    25    26    1
     5    25     7    1
     6    25    14    1
     7     8     7    1
     8    15    14    1
     9     4     7    1
    10     4     5    1
    11     4     3    1
    12    22    14    1
    13    22    24    1
    14    22     3    1
    15     7    16    1
    16    14    19    1
    17     2     1    1
    18     1     3    1
    19     3     9    1
    20    16    18    1
    21    16    17    1
    22    16    12    1
    23    19    21    1
    24    19    20    1
    25    19    12    1
    26     9    12    1
    27     9    11    1
    28     9    10    1
    29    12    13    1
