@<TRIPOS>MOLECULE
2
 27 29 0 0 0
SMALL
GASTEIGER

@<TRIPOS>ATOM
      1 N           7.4922    6.4643    8.3073 N.3     1  UNL1       -0.2211
      2 C           6.9673    6.4437    7.2592 C.3     1  UNL1        0.1073
      3 C           8.2579    6.4891    9.4839 C.3     1  UNL1        0.0382
      4 C           9.4912    7.9577   11.0823 C.3     1  UNL1       -0.0388
      5 H           9.7717    8.9923   11.3107 H       1  UNL1        0.0302
      6 C           8.2848    5.9408   11.9187 C.3     1  UNL1       -0.0388
      7 H           7.6995    5.5270   12.7479 H       1  UNL1        0.0302
      8 C           8.6782    7.3820   12.2415 C.3     1  UNL1       -0.0472
      9 H           7.7822    7.9858   12.4037 H       1  UNL1        0.0271
     10 H           9.2699    7.4080   13.1593 H       1  UNL1        0.0271
     11 C           7.4389    5.9126   10.6460 C.3     1  UNL1       -0.0303
     12 H           7.1419    4.8882   10.4093 H       1  UNL1        0.0286
     13 H           6.5294    6.5031   10.7809 H       1  UNL1        0.0286
     14 C           8.6502    7.9368    9.8073 C.3     1  UNL1       -0.0303
     15 H           7.7466    8.5376    9.9368 H       1  UNL1        0.0286
     16 H           9.2149    8.3544    8.9714 H       1  UNL1        0.0286
     17 C           9.5201    5.6421    9.2818 C.3     1  UNL1       -0.0303
     18 H          10.0841    6.0281    8.4302 H       1  UNL1        0.0286
     19 H           9.2297    4.6155    9.0468 H       1  UNL1        0.0286
     20 C           9.5469    5.1025   11.7167 C.3     1  UNL1       -0.0472
     21 H          10.1457    5.1093   12.6303 H       1  UNL1        0.0271
     22 H           9.2754    4.0664   11.5020 H       1  UNL1        0.0271
     23 C          10.3596    5.6786   10.5570 C.3     1  UNL1       -0.0388
     24 H          11.2634    5.0772   10.4095 H       1  UNL1        0.0302
     25 C          10.7529    7.1211   10.8730 C.3     1  UNL1       -0.0472
     26 H          11.3393    7.5343   10.0494 H       1  UNL1        0.0271
     27 H          11.3710    7.1492   11.7733 H       1  UNL1        0.0271
@<TRIPOS>BOND
     1     2     1    1
     2     1     3    1
     3    18    17    1
     4    16    14    1
     5    19    17    1
     6    17     3    1
     7    17    23    1
     8     3    14    1
     9     3    11    1
    10    14    15    1
    11    14     4    1
    12    26    25    1
    13    12    11    1
    14    24    23    1
    15    23    25    1
    16    23    20    1
    17    11    13    1
    18    11     6    1
    19    25     4    1
    20    25    27    1
    21     4     5    1
    22     4     8    1
    23    22    20    1
    24    20     6    1
    25    20    21    1
    26     6     8    1
    27     6     7    1
    28     8     9    1
    29     8    10    1
