@<TRIPOS>MOLECULE
1
 4 3 0 0 0
SMALL
GASTEIGER

@<TRIPOS>ATOM
      1 C          -1.3673    9.9656    1.5785 C.3     1  UNL1       -0.0681
      2 H          -1.1478    9.3651    0.6861 H       1  UNL1        0.0227
      3 H          -2.4315    9.8352    1.7978 H       1  UNL1        0.0227
      4 H          -1.2159   11.0223    1.3037 H       1  UNL1        0.0227
@<TRIPOS>BOND
     1     2     1    1
     2     4     1    1
     3     1     3    1
