@<TRIPOS>MOLECULE
2
 16 15 0 0 0
SMALL
GASTEIGER

@<TRIPOS>ATOM
      1 SI          4.7372    3.9729   18.4866 Si      1  UNL1        0.0000
      2 C           6.1109    2.8791   17.8275 C.3     1  UNL1        0.0000
      3 H           5.7831    1.8314   17.8479 H       1  UNL1        0.0000
      4 H           6.9414    2.9295   18.5438 H       1  UNL1        0.0000
      5 C           2.9798    3.2973   18.0923 C.3     1  UNL1        0.0000
      6 H           2.7700    3.3428   17.0298 H       1  UNL1        0.0000
      7 H           2.2137    3.8729   18.6025 H       1  UNL1        0.0000
      8 H           2.8734    2.2643   18.4084 H       1  UNL1        0.0000
      9 C           4.7535    4.2288   20.3916 C.3     1  UNL1        0.0000
     10 H           4.5995    3.2922   20.9189 H       1  UNL1        0.0000
     11 H           3.9844    4.9215   20.7207 H       1  UNL1        0.0000
     12 H           5.7107    4.6277   20.7132 H       1  UNL1        0.0000
     13 C           4.8057    5.7390   17.7374 C.3     1  UNL1        0.0000
     14 H           5.6818    6.2768   18.0861 H       1  UNL1        0.0000
     15 H           3.9327    6.3277   18.0065 H       1  UNL1        0.0000
     16 H           4.8617    5.7008   16.6518 H       1  UNL1        0.0000
@<TRIPOS>BOND
     1    16    13    1
     2     6     5    1
     3    13    15    1
     4    13    14    1
     5    13     1    1
     6     2     3    1
     7     2     1    1
     8     2     4    1
     9     5     8    1
    10     5     1    1
    11     5     7    1
    12     1     9    1
    13     9    12    1
    14     9    11    1
    15     9    10    1
