@<TRIPOS>MOLECULE
2
 16 15 0 0 0
SMALL
GASTEIGER

@<TRIPOS>ATOM
      1 SI          9.7353    0.8889   16.6154 Si      1  UNL1        0.0000
      2 C           9.3491    2.3172   15.4655 C.3     1  UNL1        0.0000
      3 H           9.4999    2.0194   14.4209 H       1  UNL1        0.0000
      4 H          10.0816    3.1127   15.6525 H       1  UNL1        0.0000
      5 C           9.9812    1.5080   18.4094 C.3     1  UNL1        0.0000
      6 H          10.7800    2.2411   18.4626 H       1  UNL1        0.0000
      7 H          10.2387    0.6953   19.0822 H       1  UNL1        0.0000
      8 H           9.0783    1.9764   18.7887 H       1  UNL1        0.0000
      9 C           8.3227   -0.4161   16.6509 C.3     1  UNL1        0.0000
     10 H           7.3479    0.0649   16.6381 H       1  UNL1        0.0000
     11 H           8.3790   -1.0255   17.5477 H       1  UNL1        0.0000
     12 H           8.3737   -1.0915   15.8012 H       1  UNL1        0.0000
     13 C          11.3180   -0.1191   16.1786 C.3     1  UNL1        0.0000
     14 H          11.2625   -0.5252   15.1723 H       1  UNL1        0.0000
     15 H          11.4725   -0.9523   16.8578 H       1  UNL1        0.0000
     16 H          12.2023    0.5087   16.2251 H       1  UNL1        0.0000
@<TRIPOS>BOND
     1     3     2    1
     2    14    13    1
     3     2     4    1
     4     2     1    1
     5    12     9    1
     6    13    16    1
     7    13     1    1
     8    13    15    1
     9     1     9    1
    10     1     5    1
    11    10     9    1
    12     9    11    1
    13     5     6    1
    14     5     8    1
    15     5     7    1
