@<TRIPOS>MOLECULE
2
 16 15 0 0 0
SMALL
GASTEIGER

@<TRIPOS>ATOM
      1 SI          8.9653    6.4753   16.5117 Si      1  UNL1        0.0000
      2 C           7.7440    5.7409   15.2865 C.3     1  UNL1        0.0000
      3 H           8.1542    5.8473   14.2745 H       1  UNL1        0.0000
      4 H           6.8201    6.3297   15.2985 H       1  UNL1        0.0000
      5 C           8.9349    5.5335   18.1818 C.3     1  UNL1        0.0000
      6 H           7.9301    5.4971   18.5942 H       1  UNL1        0.0000
      7 H           9.5750    6.0055   18.9224 H       1  UNL1        0.0000
      8 H           9.2769    4.5088   18.0536 H       1  UNL1        0.0000
      9 C           8.6611    8.3267   16.9340 C.3     1  UNL1        0.0000
     10 H           8.7195    8.9503   16.0471 H       1  UNL1        0.0000
     11 H           9.3850    8.7052   17.6492 H       1  UNL1        0.0000
     12 H           7.6738    8.4645   17.3642 H       1  UNL1        0.0000
     13 C          10.7571    6.3663   15.8351 C.3     1  UNL1        0.0000
     14 H          10.9814    5.3587   15.4994 H       1  UNL1        0.0000
     15 H          11.4880    6.6302   16.5927 H       1  UNL1        0.0000
     16 H          10.9037    7.0335   14.9914 H       1  UNL1        0.0000
@<TRIPOS>BOND
     1     3     2    1
     2    16    13    1
     3     2     4    1
     4     2     1    1
     5    14    13    1
     6    13     1    1
     7    13    15    1
     8    10     9    1
     9     1     9    1
    10     1     5    1
    11     9    12    1
    12     9    11    1
    13     8     5    1
    14     5     6    1
    15     5     7    1
