@<TRIPOS>MOLECULE
1
 4 3 0 0 0
SMALL
GASTEIGER

@<TRIPOS>ATOM
      1 C           7.3980    2.7179    9.9072 C.3     1  UNL1       -0.0681
      2 H           6.8598    2.0892    9.1873 H       1  UNL1        0.0227
      3 H           8.1615    2.0769   10.3634 H       1  UNL1        0.0227
      4 H           7.9419    3.4630    9.3134 H       1  UNL1        0.0227
@<TRIPOS>BOND
     1     2     1    1
     2     4     1    1
     3     1     3    1
