@<TRIPOS>MOLECULE
2
 15 14 0 0 0
SMALL
GASTEIGER

@<TRIPOS>ATOM
      1 SI          7.7693    0.9496   10.3084 Si      1  UNL1        0.0000
      2 C           7.9916    2.7816   10.0032 C.3     1  UNL1        0.0000
      3 H           8.1561    2.9752    8.9415 H       1  UNL1        0.0000
      4 C           9.0646   -0.1133    9.3638 C.3     1  UNL1        0.0000
      5 H           8.7437   -1.1487    9.3120 H       1  UNL1        0.0000
      6 H          10.0396   -0.1005    9.8408 H       1  UNL1        0.0000
      7 H           9.1910    0.2383    8.3449 H       1  UNL1        0.0000
      8 C           6.0689    0.3562    9.6242 C.3     1  UNL1        0.0000
      9 H           5.2403    0.9215   10.0402 H       1  UNL1        0.0000
     10 H           5.9001   -0.6925    9.8509 H       1  UNL1        0.0000
     11 H           6.0308    0.4680    8.5450 H       1  UNL1        0.0000
     12 C           7.8710    0.4477   12.1477 C.3     1  UNL1        0.0000
     13 H           7.5347   -0.5727   12.3074 H       1  UNL1        0.0000
     14 H           7.2479    1.0938   12.7585 H       1  UNL1        0.0000
     15 H           8.8893    0.5174   12.5207 H       1  UNL1        0.0000
@<TRIPOS>BOND
     1     7     4    1
     2    11     8    1
     3     3     2    1
     4     5     4    1
     5     4     6    1
     6     4     1    1
     7     8    10    1
     8     8     9    1
     9     8     1    1
    10     2     1    1
    11     1    12    1
    12    12    13    1
    13    12    15    1
    14    12    14    1
