@<TRIPOS>MOLECULE
1
 4 3 0 0 0
SMALL
GASTEIGER

@<TRIPOS>ATOM
      1 C          15.3770    7.0862   -0.0925 C.3     1  UNL1       -0.0681
      2 H          15.3867    7.2364   -1.1798 H       1  UNL1        0.0227
      3 H          14.9026    7.9668    0.3634 H       1  UNL1        0.0227
      4 H          14.7158    6.2345    0.1132 H       1  UNL1        0.0227
@<TRIPOS>BOND
     1     2     1    1
     2     1     4    1
     3     1     3    1
