@<TRIPOS>MOLECULE
1
 4 3 0 0 0
SMALL
GASTEIGER

@<TRIPOS>ATOM
      1 C          19.0585    6.4088   -0.0926 C.3     1  UNL1       -0.0681
      2 H          19.0487    6.2586   -1.1799 H       1  UNL1        0.0227
      3 H          19.5329    5.5282    0.3634 H       1  UNL1        0.0227
      4 H          19.7197    7.2605    0.1131 H       1  UNL1        0.0227
@<TRIPOS>BOND
     1     2     1    1
     2     1     4    1
     3     1     3    1
