@<TRIPOS>MOLECULE
2
 16 15 0 0 0
SMALL
GASTEIGER

@<TRIPOS>ATOM
      1 SI          1.3320    7.6109    8.2297 Si      1  UNL1        0.0000
      2 C           0.1400    7.0004    6.9099 C.3     1  UNL1        0.0000
      3 H           0.3001    7.5712    5.9869 H       1  UNL1        0.0000
      4 H          -0.8895    7.2209    7.2201 H       1  UNL1        0.0000
      5 C           1.3545    6.3899    9.7077 C.3     1  UNL1        0.0000
      6 H           0.4012    6.3881   10.2285 H       1  UNL1        0.0000
      7 H           2.1186    6.6531   10.4332 H       1  UNL1        0.0000
      8 H           1.5502    5.3707    9.3758 H       1  UNL1        0.0000
      9 C           0.9664    9.3495    8.9545 C.3     1  UNL1        0.0000
     10 H           0.9668   10.1072    8.1771 H       1  UNL1        0.0000
     11 H           1.7035    9.6408    9.6967 H       1  UNL1        0.0000
     12 H          -0.0075    9.3754    9.4334 H       1  UNL1        0.0000
     13 C           3.0942    7.6810    7.4788 C.3     1  UNL1        0.0000
     14 H           3.3081    6.7710    6.9249 H       1  UNL1        0.0000
     15 H           3.8556    7.7926    8.2440 H       1  UNL1        0.0000
     16 H           3.1938    8.5173    6.7942 H       1  UNL1        0.0000
@<TRIPOS>BOND
     1     3     2    1
     2    16    13    1
     3     2     4    1
     4     2     1    1
     5    14    13    1
     6    13     1    1
     7    13    15    1
     8    10     9    1
     9     1     9    1
    10     1     5    1
    11     9    12    1
    12     9    11    1
    13     8     5    1
    14     5     6    1
    15     5     7    1
