@<TRIPOS>MOLECULE
2
 16 15 0 0 0
SMALL
GASTEIGER

@<TRIPOS>ATOM
      1 SI         -2.7197    3.5649    4.9951 Si      1  UNL1        0.0000
      2 C          -1.0633    4.3502    4.5616 C.3     1  UNL1        0.0000
      3 H          -1.2513    5.3227    4.0877 H       1  UNL1        0.0000
      4 H          -0.5444    3.7397    3.8161 H       1  UNL1        0.0000
      5 C          -2.4783    1.9171    5.9441 C.3     1  UNL1        0.0000
      6 H          -2.0623    1.1477    5.3016 H       1  UNL1        0.0000
      7 H          -3.4248    1.5419    6.3219 H       1  UNL1        0.0000
      8 H          -1.8111    2.0345    6.7950 H       1  UNL1        0.0000
      9 C          -3.8530    3.1595    3.4988 C.3     1  UNL1        0.0000
     10 H          -4.0493    4.0457    2.9034 H       1  UNL1        0.0000
     11 H          -4.8109    2.7610    3.8185 H       1  UNL1        0.0000
     12 H          -3.3948    2.4233    2.8456 H       1  UNL1        0.0000
     13 C          -3.6778    4.7939    6.1143 C.3     1  UNL1        0.0000
     14 H          -2.9884    5.3953    6.7043 H       1  UNL1        0.0000
     15 H          -4.3418    4.2788    6.8011 H       1  UNL1        0.0000
     16 H          -4.2834    5.4727    5.5227 H       1  UNL1        0.0000
@<TRIPOS>BOND
     1    12     9    1
     2    10     9    1
     3     9    11    1
     4     9     1    1
     5     4     2    1
     6     3     2    1
     7     2     1    1
     8     1     5    1
     9     1    13    1
    10     6     5    1
    11    16    13    1
    12     5     7    1
    13     5     8    1
    14    13    14    1
    15    13    15    1
