@<TRIPOS>MOLECULE
2
 23 23 0 0 0
SMALL
GASTEIGER

@<TRIPOS>ATOM
      1 SI          5.1868   21.6680    3.9824 Si      1  UNL1        0.0000
      2 C           5.4412   16.9731    3.4560 C.ar    1  UNL1        0.0000
      3 C           4.4065   17.7183    2.8980 C.ar    1  UNL1        0.0000
      4 H           3.6279   17.2372    2.3241 H       1  UNL1        0.0000
      5 C           4.3438   19.0908    3.0621 C.ar    1  UNL1        0.0000
      6 H           3.5236   19.6339    2.6126 H       1  UNL1        0.0000
      7 C           5.3054   19.7864    3.7870 C.ar    1  UNL1        0.0000
      8 C           6.3352   19.0379    4.3439 C.ar    1  UNL1        0.0000
      9 H           7.1049   19.5360    4.9159 H       1  UNL1        0.0000
     10 C           6.4043   17.6640    4.1847 C.ar    1  UNL1        0.0000
     11 H           7.2312   17.1392    4.6414 H       1  UNL1        0.0000
     12 C           3.5444   22.1093    4.8538 C.3     1  UNL1        0.0000
     13 H           3.4273   23.1835    4.9620 H       1  UNL1        0.0000
     14 H           3.4938   21.6701    5.8455 H       1  UNL1        0.0000
     15 H           2.6918   21.7410    4.2918 H       1  UNL1        0.0000
     16 C           5.2197   22.4831    2.2543 C.3     1  UNL1        0.0000
     17 H           6.1415   22.2538    1.7282 H       1  UNL1        0.0000
     18 H           5.1384   23.5639    2.3224 H       1  UNL1        0.0000
     19 H           4.3978   22.1303    1.6391 H       1  UNL1        0.0000
     20 C           6.6435   22.3378    5.0158 C.3     1  UNL1        0.0000
     21 H           7.5972   22.1132    4.5484 H       1  UNL1        0.0000
     22 H           6.6532   21.9084    6.0127 H       1  UNL1        0.0000
     23 H           6.5797   23.4161    5.1257 H       1  UNL1        0.0000
@<TRIPOS>BOND
     1    19    16    1
     2    17    16    1
     3    16    18    1
     4    16     1    1
     5     4     3    1
     6     6     5    1
     7     3     5   ar
     8     3     2   ar
     9     5     7   ar
    10     2    10   ar
    11     7     1    1
    12     7     8   ar
    13     1    12    1
    14     1    20    1
    15    10     8   ar
    16    10    11    1
    17    15    12    1
    18     8     9    1
    19    21    20    1
    20    12    13    1
    21    12    14    1
    22    20    23    1
    23    20    22    1
