@<TRIPOS>MOLECULE
2
 16 15 0 0 0
SMALL
GASTEIGER

@<TRIPOS>ATOM
      1 SI          5.2582   -0.0348    1.7714 Si      1  UNL1        0.0000
      2 C           3.9660    1.0432    2.6444 C.3     1  UNL1        0.0000
      3 C           6.9343    0.0957    2.6870 C.3     1  UNL1        0.0000
      4 C           5.5453    0.6334   -0.0049 C.3     1  UNL1        0.0000
      5 C           4.8487   -1.8958    1.5643 C.3     1  UNL1        0.0000
      6 H           3.1613    1.2805    1.9465 H       1  UNL1        0.0000
      7 H           4.4721    1.9976    2.8124 H       1  UNL1        0.0000
      8 H           7.3266    1.1083    2.6683 H       1  UNL1        0.0000
      9 H           7.6782   -0.5483    2.2283 H       1  UNL1        0.0000
     10 H           6.8333   -0.2120    3.7225 H       1  UNL1        0.0000
     11 H           5.8653    1.6701    0.0073 H       1  UNL1        0.0000
     12 H           4.6399    0.5780   -0.6007 H       1  UNL1        0.0000
     13 H           6.3101    0.0614   -0.5193 H       1  UNL1        0.0000
     14 H           5.7682   -2.4678    1.4880 H       1  UNL1        0.0000
     15 H           4.2725   -2.0934    0.6650 H       1  UNL1        0.0000
     16 H           4.3013   -2.2851    2.4165 H       1  UNL1        0.0000
@<TRIPOS>BOND
     1    12     4    1
     2    13     4    1
     3     4    11    1
     4     4     1    1
     5    15     5    1
     6    14     5    1
     7     5     1    1
     8     5    16    1
     9     1     2    1
    10     1     3    1
    11     6     2    1
    12     9     3    1
    13     2     7    1
    14     8     3    1
    15     3    10    1
