@<TRIPOS>MOLECULE
1
 13 13 0 0 0
SMALL
GASTEIGER

@<TRIPOS>ATOM
      1 C          -0.9268    6.9710    1.3972 C.1     1  UNL1       -0.0092
      2 C          -1.4355    8.0040    1.7864 C.1     1  UNL1       -0.0525
      3 C          -2.0192    9.2134    2.2533 C.ar    1  UNL1        0.0259
      4 C          -1.7223    9.6938    3.5300 C.ar    1  UNL1       -0.0463
      5 C          -2.2841   10.8742    3.9762 C.ar    1  UNL1       -0.0606
      6 C          -3.1453   11.5904    3.1602 C.ar    1  UNL1       -0.0617
      7 C          -3.4439   11.1197    1.8913 C.ar    1  UNL1       -0.0606
      8 C          -2.8864    9.9406    1.4364 C.ar    1  UNL1       -0.0463
      9 H          -1.0521    9.1304    4.1640 H       1  UNL1        0.0630
     10 H          -2.0513   11.2397    4.9666 H       1  UNL1        0.0618
     11 H          -3.5839   12.5125    3.5128 H       1  UNL1        0.0618
     12 H          -4.1164   11.6767    1.2543 H       1  UNL1        0.0618
     13 H          -3.1173    9.5680    0.4484 H       1  UNL1        0.0630
@<TRIPOS>BOND
     1    13     8    1
     2    12     7    1
     3     1     2    3
     4     8     7   ar
     5     8     3   ar
     6     2     3    1
     7     7     6   ar
     8     3     4   ar
     9     6    11    1
    10     6     5   ar
    11     4     5   ar
    12     4     9    1
    13     5    10    1
