@<TRIPOS>MOLECULE
1
 27 28 0 0 0
SMALL
GASTEIGER

@<TRIPOS>ATOM
      1 C           3.0267    2.2438    7.0886 C.3     1  UNL1       -0.0048
      2 H           2.1301    1.7394    6.6872 H       1  UNL1        0.0358
      3 C           4.1538    1.8570    6.1904 C.ar    1  UNL1       -0.0434
      4 C           5.5016    1.9830    6.5552 C.ar    1  UNL1       -0.0583
      5 H           5.7655    2.3800    7.5272 H       1  UNL1        0.0620
      6 C           6.5180    1.6034    5.7005 C.ar    1  UNL1       -0.0615
      7 H           7.5474    1.7018    6.0190 H       1  UNL1        0.0618
      8 C           6.2316    1.0882    4.4467 C.ar    1  UNL1       -0.0617
      9 H           7.0275    0.7866    3.7823 H       1  UNL1        0.0618
     10 C           4.9062    0.9564    4.0620 C.ar    1  UNL1       -0.0615
     11 H           4.6658    0.5464    3.0909 H       1  UNL1        0.0618
     12 C           3.8894    1.3271    4.9196 C.ar    1  UNL1       -0.0583
     13 H           2.8605    1.2004    4.6090 H       1  UNL1        0.0620
     14 C           3.1994    1.6601    8.5225 C.3     1  UNL1       -0.0203
     15 H           2.3481    1.9605    9.1447 H       1  UNL1        0.0319
     16 H           4.1149    2.0156    9.0011 H       1  UNL1        0.0319
     17 C           3.2294    0.1571    8.4301 C.ar    1  UNL1       -0.0468
     18 C           2.0422   -0.5531    8.2898 C.ar    1  UNL1       -0.0586
     19 H           1.1000   -0.0219    8.3116 H       1  UNL1        0.0620
     20 C           2.0509   -1.9257    8.1283 C.ar    1  UNL1       -0.0615
     21 H           1.1185   -2.4621    8.0240 H       1  UNL1        0.0618
     22 C           3.2528   -2.6129    8.0997 C.ar    1  UNL1       -0.0617
     23 H           3.2622   -3.6853    7.9707 H       1  UNL1        0.0618
     24 C           4.4405   -1.9175    8.2414 C.ar    1  UNL1       -0.0615
     25 H           5.3822   -2.4471    8.2234 H       1  UNL1        0.0618
     26 C           4.4282   -0.5438    8.4074 C.ar    1  UNL1       -0.0586
     27 H           5.3620   -0.0131    8.5205 H       1  UNL1        0.0620
@<TRIPOS>BOND
     1    11    10    1
     2     9     8    1
     3    10     8   ar
     4    10    12   ar
     5     8     6   ar
     6    13    12    1
     7    12     3   ar
     8     6     7    1
     9     6     4   ar
    10     3     4   ar
    11     3     1    1
    12     4     5    1
    13     2     1    1
    14     1    14    1
    15    23    22    1
    16    21    20    1
    17    22    20   ar
    18    22    24   ar
    19    20    18   ar
    20    25    24    1
    21    24    26   ar
    22    18    19    1
    23    18    17   ar
    24    26    17   ar
    25    26    27    1
    26    17    14    1
    27    14    16    1
    28    14    15    1
