@<TRIPOS>MOLECULE
2
 14 13 0 0 0
SMALL
GASTEIGER

@<TRIPOS>ATOM
      1 SI          7.8566   -0.4009    2.7307 Si      1  UNL1        0.0000
      2 C           6.5451    0.7455    3.4015 C.3     1  UNL1        0.0000
      3 C           8.3994   -1.6677    4.0692 C.3     1  UNL1        0.0000
      4 H           8.0800   -1.3620    5.0604 H       1  UNL1        0.0000
      5 H           9.4808   -1.7625    4.0921 H       1  UNL1        0.0000
      6 H           7.9895   -2.6537    3.8762 H       1  UNL1        0.0000
      7 C           7.1970   -1.3320    1.1941 C.3     1  UNL1        0.0000
      8 H           6.2567   -1.8319    1.4021 H       1  UNL1        0.0000
      9 H           7.9054   -2.0833    0.8578 H       1  UNL1        0.0000
     10 H           7.0239   -0.6473    0.3695 H       1  UNL1        0.0000
     11 C           9.5026    0.4308    2.1990 C.3     1  UNL1        0.0000
     12 H           9.4171    0.9806    1.2689 H       1  UNL1        0.0000
     13 H          10.2649   -0.3305    2.0558 H       1  UNL1        0.0000
     14 H           9.8674    1.1170    2.9554 H       1  UNL1        0.0000
@<TRIPOS>BOND
     1    10     7    1
     2     9     7    1
     3     7     8    1
     4     7     1    1
     5    12    11    1
     6    13    11    1
     7    11     1    1
     8    11    14    1
     9     1     2    1
    10     1     3    1
    11     6     3    1
    12     3     5    1
    13     3     4    1
