@<TRIPOS>MOLECULE
2
 15 14 0 0 0
SMALL
GASTEIGER

@<TRIPOS>ATOM
      1 SI         10.3636    6.3309    7.1099 Si      1  UNL1        0.0000
      2 C           8.6570    8.0812    5.2667 C.1     1  UNL1        0.0000
      3 C           9.3555    7.4240    6.0106 C.1     1  UNL1        0.0000
      4 C          11.6701    7.3625    8.0442 C.3     1  UNL1        0.0000
      5 H          12.3630    7.8353    7.3547 H       1  UNL1        0.0000
      6 H          12.2518    6.7481    8.7259 H       1  UNL1        0.0000
      7 H          11.2020    8.1493    8.6280 H       1  UNL1        0.0000
      8 C          11.2280    5.0154    6.0273 C.3     1  UNL1        0.0000
      9 H          10.4998    4.3599    5.5586 H       1  UNL1        0.0000
     10 H          11.9017    4.3951    6.6119 H       1  UNL1        0.0000
     11 H          11.8102    5.4789    5.2363 H       1  UNL1        0.0000
     12 C           9.1905    5.4691    8.3448 C.3     1  UNL1        0.0000
     13 H           8.7148    6.1913    9.0008 H       1  UNL1        0.0000
     14 H           9.7165    4.7522    8.9688 H       1  UNL1        0.0000
     15 H           8.4023    4.9379    7.8190 H       1  UNL1        0.0000
@<TRIPOS>BOND
     1    11     8    1
     2     2     3    3
     3     9     8    1
     4     3     1    1
     5     8    10    1
     6     8     1    1
     7     1     4    1
     8     1    12    1
     9     5     4    1
    10    15    12    1
    11     4     7    1
    12     4     6    1
    13    12    14    1
    14    12    13    1
