@<TRIPOS>MOLECULE
2
 16 15 0 0 0
SMALL
GASTEIGER

@<TRIPOS>ATOM
      1 SI          5.5058   10.7284    7.9198 Si      1  UNL1        0.0000
      2 C           5.4710   12.5157    8.5506 C.3     1  UNL1        0.0000
      3 H           6.4548   12.9507    8.3149 H       1  UNL1        0.0000
      4 H           5.4591   12.4053    9.6452 H       1  UNL1        0.0000
      5 C           4.7051    9.5557    9.2119 C.3     1  UNL1        0.0000
      6 H           3.7057    9.8659    9.4967 H       1  UNL1        0.0000
      7 H           5.3008    9.5157   10.1191 H       1  UNL1        0.0000
      8 H           4.6332    8.5422    8.8292 H       1  UNL1        0.0000
      9 C           7.3129   10.1125    7.7142 C.3     1  UNL1        0.0000
     10 H           7.3490    9.0802    7.3812 H       1  UNL1        0.0000
     11 H           7.8659   10.1737    8.6464 H       1  UNL1        0.0000
     12 H           7.8465   10.7086    6.9804 H       1  UNL1        0.0000
     13 C           4.6916   10.3524    6.2223 C.3     1  UNL1        0.0000
     14 H           3.7222   10.8175    6.0827 H       1  UNL1        0.0000
     15 H           4.5494    9.2804    6.1162 H       1  UNL1        0.0000
     16 H           5.3292   10.6695    5.4039 H       1  UNL1        0.0000
@<TRIPOS>BOND
     1    16    13    1
     2    14    13    1
     3    15    13    1
     4    13     1    1
     5    12     9    1
     6    10     9    1
     7     9     1    1
     8     9    11    1
     9     1     2    1
    10     1     5    1
    11     3     2    1
    12     2     4    1
    13     8     5    1
    14     5     6    1
    15     5     7    1
