@<TRIPOS>MOLECULE
2
 16 15 0 0 0
SMALL
GASTEIGER

@<TRIPOS>ATOM
      1 SI          5.6851   15.5051    5.5024 Si      1  UNL1        0.0000
      2 C           5.3121   15.7668    7.3286 C.3     1  UNL1        0.0000
      3 H           4.8256   16.7397    7.4724 H       1  UNL1        0.0000
      4 H           6.2687   15.8160    7.8612 H       1  UNL1        0.0000
      5 C           4.2811   16.0572    4.3253 C.3     1  UNL1        0.0000
      6 H           3.9690   17.0766    4.5255 H       1  UNL1        0.0000
      7 H           3.4074   15.4207    4.4164 H       1  UNL1        0.0000
      8 H           4.6096   16.0182    3.2915 H       1  UNL1        0.0000
      9 C           7.2909   16.3523    4.8763 C.3     1  UNL1        0.0000
     10 H           8.1481   16.0633    5.4762 H       1  UNL1        0.0000
     11 H           7.2116   17.4337    4.9214 H       1  UNL1        0.0000
     12 H           7.5094   16.0847    3.8476 H       1  UNL1        0.0000
     13 C           5.9189   13.6161    5.2652 C.3     1  UNL1        0.0000
     14 H           6.7948   13.2505    5.7914 H       1  UNL1        0.0000
     15 H           6.0449   13.3577    4.2185 H       1  UNL1        0.0000
     16 H           5.0520   13.0732    5.6418 H       1  UNL1        0.0000
@<TRIPOS>BOND
     1     8     5    1
     2    12     9    1
     3    15    13    1
     4     5     7    1
     5     5     6    1
     6     5     1    1
     7     9    11    1
     8     9    10    1
     9     9     1    1
    10    13     1    1
    11    13    16    1
    12    13    14    1
    13     1     2    1
    14     2     3    1
    15     2     4    1
