@<TRIPOS>MOLECULE
1
 15 14 0 0 0
SMALL
GASTEIGER

@<TRIPOS>ATOM
      1 C           5.8247    2.4263    0.4585 C.3     1  UNL1       -0.0290
      2 C           6.2101    3.4453   -0.5819 C.3     1  UNL1       -0.0343
      3 C           7.6796    3.8748   -0.4203 C.3     1  UNL1       -0.0598
      4 C           5.3267    4.6999   -0.5178 C.3     1  UNL1       -0.0598
      5 C           6.0396    2.8169   -1.9817 C.3     1  UNL1       -0.0598
      6 H           6.6812    1.7473    0.6548 H       1  UNL1        0.0312
      7 H           7.9505    4.6125   -1.1746 H       1  UNL1        0.0235
      8 H           8.3434    3.0185   -0.5271 H       1  UNL1        0.0235
      9 H           7.8427    4.3127    0.5632 H       1  UNL1        0.0235
     10 H           5.5803    5.3828   -1.3282 H       1  UNL1        0.0235
     11 H           5.4661    5.2231    0.4263 H       1  UNL1        0.0235
     12 H           4.2785    4.4192   -0.6108 H       1  UNL1        0.0235
     13 H           6.3003    3.5329   -2.7604 H       1  UNL1        0.0235
     14 H           5.0080    2.4971   -2.1235 H       1  UNL1        0.0235
     15 H           6.6810    1.9450   -2.0891 H       1  UNL1        0.0235
@<TRIPOS>BOND
     1    13     5    1
     2    14     5    1
     3    15     5    1
     4     5     2    1
     5    10     4    1
     6     7     3    1
     7    12     4    1
     8     2     4    1
     9     2     3    1
    10     2     1    1
    11     8     3    1
    12     4    11    1
    13     3     9    1
    14     1     6    1
