@<TRIPOS>MOLECULE
1
 16 15 0 0 0
SMALL
GASTEIGER

@<TRIPOS>ATOM
      1 C           2.7979    3.3669    1.5090 C.3     1  UNL1        0.0000
      2 SI          1.2533    3.0944    2.5535 Si      1  UNL1        0.0000
      3 C           0.1034    4.6351    2.5752 C.3     1  UNL1        0.0000
      4 C           1.6009    2.7134    4.4019 C.3     1  UNL1        0.0000
      5 C           0.1346    1.6604    1.9398 C.3     1  UNL1        0.0000
      6 H           3.3026    4.2736    1.8810 H       1  UNL1        0.0000
      7 H           2.4610    3.6212    0.4931 H       1  UNL1        0.0000
      8 H          -0.2363    4.8884    1.5752 H       1  UNL1        0.0000
      9 H           0.6183    5.5054    2.9714 H       1  UNL1        0.0000
     10 H          -0.7782    4.4713    3.1873 H       1  UNL1        0.0000
     11 H           1.9155    3.6040    4.9355 H       1  UNL1        0.0000
     12 H           0.7017    2.3480    4.8902 H       1  UNL1        0.0000
     13 H           2.3705    1.9595    4.5322 H       1  UNL1        0.0000
     14 H          -0.6894    1.5017    2.6302 H       1  UNL1        0.0000
     15 H           0.6799    0.7248    1.8653 H       1  UNL1        0.0000
     16 H          -0.2992    1.8766    0.9688 H       1  UNL1        0.0000
@<TRIPOS>BOND
     1     7     1    1
     2    16     5    1
     3     1     6    1
     4     1     2    1
     5     8     3    1
     6    15     5    1
     7     5     2    1
     8     5    14    1
     9     2     3    1
    10     2     4    1
    11     3     9    1
    12     3    10    1
    13     4    13    1
    14     4    12    1
    15     4    11    1
