@<TRIPOS>MOLECULE
1
 16 15 0 0 0
SMALL
GASTEIGER

@<TRIPOS>ATOM
      1 C           2.7577   12.5415    2.2800 C.3     1  UNL1        0.0000
      2 SI          4.3125   13.2702    1.5175 Si      1  UNL1        0.0000
      3 C           3.9865   14.7774    0.3686 C.3     1  UNL1        0.0000
      4 C           5.2504   11.9878    0.4474 C.3     1  UNL1        0.0000
      5 C           5.4684   13.9341    2.8988 C.3     1  UNL1        0.0000
      6 H           2.2209   13.3692    2.7720 H       1  UNL1        0.0000
      7 H           2.0983   12.2034    1.4692 H       1  UNL1        0.0000
      8 H           3.5198   15.5977    0.9068 H       1  UNL1        0.0000
      9 H           3.3262   14.5094   -0.4508 H       1  UNL1        0.0000
     10 H           4.9072   15.1553   -0.0656 H       1  UNL1        0.0000
     11 H           4.8442   11.9651   -0.5586 H       1  UNL1        0.0000
     12 H           6.3056   12.2298    0.3616 H       1  UNL1        0.0000
     13 H           5.1607   10.9872    0.8587 H       1  UNL1        0.0000
     14 H           6.4088   14.2935    2.4918 H       1  UNL1        0.0000
     15 H           5.0051   14.7661    3.4227 H       1  UNL1        0.0000
     16 H           5.6990   13.1654    3.6308 H       1  UNL1        0.0000
@<TRIPOS>BOND
     1    11     4    1
     2     9     3    1
     3    10     3    1
     4    12     4    1
     5     3     8    1
     6     3     2    1
     7     4    13    1
     8     4     2    1
     9     7     1    1
    10     2     1    1
    11     2     5    1
    12     1     6    1
    13    14     5    1
    14     5    15    1
    15     5    16    1
