@<TRIPOS>MOLECULE
2
 17 16 0 0 0
SMALL
GASTEIGER

@<TRIPOS>ATOM
      1 SI          2.4002   -0.9129    7.2233 Si      1  UNL1        0.0000
      2 C           0.6356   -0.2655    1.9116 C.1     1  UNL1        0.0000
      3 C           1.0224   -0.4128    3.0560 C.1     1  UNL1        0.0000
      4 C           1.4463   -0.5670    4.3365 C.1     1  UNL1        0.0000
      5 C           1.8294   -0.7005    5.4836 C.1     1  UNL1        0.0000
      6 C           3.0627    0.7538    7.8755 C.3     1  UNL1        0.0000
      7 C           0.9329   -1.4874    8.3000 C.3     1  UNL1        0.0000
      8 C           3.7881   -2.2216    7.2756 C.3     1  UNL1        0.0000
      9 H           3.4044    0.6714    8.9036 H       1  UNL1        0.0000
     10 H           2.2942    1.5205    7.8445 H       1  UNL1        0.0000
     11 H           3.8989    1.1050    7.2780 H       1  UNL1        0.0000
     12 H           1.2298   -1.6272    9.3358 H       1  UNL1        0.0000
     13 H           0.5300   -2.4306    7.9430 H       1  UNL1        0.0000
     14 H           0.1264   -0.7602    8.2841 H       1  UNL1        0.0000
     15 H           3.4431   -3.1746    6.8858 H       1  UNL1        0.0000
     16 H           4.1401   -2.3887    8.2899 H       1  UNL1        0.0000
     17 H           4.6410   -1.9136    6.6779 H       1  UNL1        0.0000
@<TRIPOS>BOND
     1     2     3    3
     2     3     4    1
     3     4     5    3
     4     5     1    1
     5    17     8    1
     6    15     8    1
     7     1     8    1
     8     1     6    1
     9     1     7    1
    10     8    16    1
    11    11     6    1
    12    10     6    1
    13     6     9    1
    14    13     7    1
    15    14     7    1
    16     7    12    1
