@<TRIPOS>MOLECULE
1
 15 14 0 0 0
SMALL
GASTEIGER

@<TRIPOS>ATOM
      1 C          -1.7074    1.0946    0.2004 C.1     1  UNL1        0.0000
      2 C          -2.7076    1.7768    0.2933 C.1     1  UNL1        0.0000
      3 SI         -4.2131    2.8386    0.3901 Si      1  UNL1        0.0000
      4 C          -5.0741    2.6195    2.0798 C.3     1  UNL1        0.0000
      5 C          -3.7043    4.6691    0.1798 C.3     1  UNL1        0.0000
      6 C          -5.4295    2.3609   -1.0028 C.3     1  UNL1        0.0000
      7 H          -4.4101    2.8883    2.8960 H       1  UNL1        0.0000
      8 H          -5.9625    3.2401    2.1596 H       1  UNL1        0.0000
      9 H          -5.3779    1.5883    2.2335 H       1  UNL1        0.0000
     10 H          -3.1906    4.8259   -0.7642 H       1  UNL1        0.0000
     11 H          -4.5678    5.3283    0.1986 H       1  UNL1        0.0000
     12 H          -3.0340    4.9849    0.9744 H       1  UNL1        0.0000
     13 H          -4.9612    2.4510   -1.9785 H       1  UNL1        0.0000
     14 H          -5.7651    1.3336   -0.8943 H       1  UNL1        0.0000
     15 H          -6.3105    2.9968   -1.0001 H       1  UNL1        0.0000
@<TRIPOS>BOND
     1    13     6    1
     2     6    15    1
     3     6    14    1
     4     6     3    1
     5    10     5    1
     6     5    11    1
     7     5     3    1
     8     5    12    1
     9     1     2    3
    10     2     3    1
    11     3     4    1
    12     4     8    1
    13     4     9    1
    14     4     7    1
