@<TRIPOS>MOLECULE
2
 15 14 0 0 0
SMALL
GASTEIGER

@<TRIPOS>ATOM
      1 SI          4.2129   -2.8385   -0.3908 Si      1  UNL1        0.0000
      2 C           1.7074   -1.0943   -0.2000 C.1     1  UNL1        0.0000
      3 C           2.7075   -1.7766   -0.2933 C.1     1  UNL1        0.0000
      4 C           5.0733   -2.6195   -2.0807 C.3     1  UNL1        0.0000
      5 C           3.7042   -4.6690   -0.1804 C.3     1  UNL1        0.0000
      6 C           5.4299   -2.3611    1.0017 C.3     1  UNL1        0.0000
      7 H           4.4090   -2.8882   -2.8968 H       1  UNL1        0.0000
      8 H           5.9617   -3.2400   -2.1608 H       1  UNL1        0.0000
      9 H           5.3771   -1.5882   -2.2345 H       1  UNL1        0.0000
     10 H           3.1907   -4.8259    0.7638 H       1  UNL1        0.0000
     11 H           4.5675   -5.3283   -0.1996 H       1  UNL1        0.0000
     12 H           3.0336   -4.9847   -0.9748 H       1  UNL1        0.0000
     13 H           4.9619   -2.4512    1.9776 H       1  UNL1        0.0000
     14 H           5.7656   -1.3338    0.8931 H       1  UNL1        0.0000
     15 H           6.3108   -2.9971    0.9987 H       1  UNL1        0.0000
@<TRIPOS>BOND
     1     7     4    1
     2     9     4    1
     3     8     4    1
     4     4     1    1
     5    12     5    1
     6     1     3    1
     7     1     5    1
     8     1     6    1
     9     3     2    3
    10    11     5    1
    11     5    10    1
    12    14     6    1
    13    15     6    1
    14     6    13    1
