@<TRIPOS>MOLECULE
1
 17 16 0 0 0
SMALL
GASTEIGER

@<TRIPOS>ATOM
      1 C          -0.6404    0.2698   -1.9099 C.1     1  UNL1        0.0000
      2 C          -1.0243    0.4134   -3.0558 C.1     1  UNL1        0.0000
      3 C          -1.4458    0.5634   -4.3376 C.1     1  UNL1        0.0000
      4 C          -1.8266    0.6954   -5.4855 C.1     1  UNL1        0.0000
      5 SI         -2.3929    0.9027   -7.2274 Si      1  UNL1        0.0000
      6 C          -3.0523   -0.7661   -7.8776 C.3     1  UNL1        0.0000
      7 C          -0.9229    1.4758   -8.3012 C.3     1  UNL1        0.0000
      8 C          -3.7817    2.2102   -7.2867 C.3     1  UNL1        0.0000
      9 H          -3.3926   -0.6858   -8.9063 H       1  UNL1        0.0000
     10 H          -2.2829   -1.5317   -7.8441 H       1  UNL1        0.0000
     11 H          -3.8889   -1.1173   -7.2808 H       1  UNL1        0.0000
     12 H          -1.2171    1.6141   -9.3380 H       1  UNL1        0.0000
     13 H          -0.5211    2.4196   -7.9444 H       1  UNL1        0.0000
     14 H          -0.1163    0.7488   -8.2821 H       1  UNL1        0.0000
     15 H          -3.4383    3.1645   -6.8985 H       1  UNL1        0.0000
     16 H          -4.1312    2.3743   -8.3024 H       1  UNL1        0.0000
     17 H          -4.6359    1.9032   -6.6903 H       1  UNL1        0.0000
@<TRIPOS>BOND
     1    12     7    1
     2     9     6    1
     3    16     8    1
     4     7    14    1
     5     7    13    1
     6     7     5    1
     7     6    10    1
     8     6    11    1
     9     6     5    1
    10     8     5    1
    11     8    15    1
    12     8    17    1
    13     5     4    1
    14     4     3    3
    15     3     2    1
    16     2     1    3
