@<TRIPOS>MOLECULE
1
 4 3 0 0 0
SMALL
GASTEIGER

@<TRIPOS>ATOM
      1 C           0.1216   -1.8794    5.2518 C.3     1  UNL1       -0.0681
      2 H           0.8156   -2.6513    4.9286 H       1  UNL1        0.0227
      3 H           0.2750   -1.7198    6.3206 H       1  UNL1        0.0227
      4 H          -0.8884   -2.2666    5.1074 H       1  UNL1        0.0227
@<TRIPOS>BOND
     1     2     1    1
     2     4     1    1
     3     1     3    1
