@<TRIPOS>MOLECULE
1
 4 3 0 0 0
SMALL
GASTEIGER

@<TRIPOS>ATOM
      1 C          -0.7076    6.1232   12.0321 C.3     1  UNL1       -0.0681
      2 H          -0.6022    7.2076   12.0573 H       1  UNL1        0.0227
      3 H           0.0281    5.7166   12.7259 H       1  UNL1        0.0227
      4 H          -1.6918    5.8884   12.4385 H       1  UNL1        0.0227
@<TRIPOS>BOND
     1     1     2    1
     2     1     4    1
     3     1     3    1
