@<TRIPOS>MOLECULE
3
 21 21 0 0 0
SMALL
GASTEIGER

@<TRIPOS>ATOM
      1 N           4.7124    8.0707    7.0393 N.pl3   1  UNL1       -0.3080
      2 N           3.0660    7.3218    5.8873 N.pl3   1  UNL1       -0.3080
      3 C           4.3696    7.6876    5.7823 C.3     1  UNL1        0.1864
      4 C           3.6471    7.9532    7.9097 C.2     1  UNL1        0.0217
      5 C           2.6016    7.4779    7.1781 C.2     1  UNL1        0.0217
      6 C           6.0297    8.5128    7.4111 C.3     1  UNL1        0.0026
      7 H           6.6646    8.4912    6.5129 H       1  UNL1        0.0428
      8 H           6.4555    7.8503    8.1688 H       1  UNL1        0.0428
      9 H           5.9954    9.5281    7.8151 H       1  UNL1        0.0428
     10 C           3.7552    8.3101    9.3475 C.3     1  UNL1       -0.0251
     11 H           2.8055    8.1464    9.8481 H       1  UNL1        0.0290
     12 H           4.0328    9.3576    9.4655 H       1  UNL1        0.0290
     13 H           4.5149    7.7023    9.8390 H       1  UNL1        0.0290
     14 C           1.2039    7.1533    7.5626 C.3     1  UNL1       -0.0251
     15 H           1.0474    7.3563    8.6179 H       1  UNL1        0.0290
     16 H           0.9872    6.1015    7.3765 H       1  UNL1        0.0290
     17 H           0.4970    7.7506    6.9866 H       1  UNL1        0.0290
     18 C           2.2871    6.8081    4.7925 C.3     1  UNL1        0.0026
     19 H           2.9270    6.7845    3.8981 H       1  UNL1        0.0428
     20 H           1.4167    7.4434    4.6074 H       1  UNL1        0.0428
     21 H           1.9392    5.7959    5.0132 H       1  UNL1        0.0428
@<TRIPOS>BOND
     1    19    18    1
     2    20    18    1
     3    18    21    1
     4    18     2    1
     5     3     2    1
     6     3     1    1
     7     2     5    1
     8     7     6    1
     9    17    14    1
    10     1     6    1
    11     1     4    1
    12     5    14    1
    13     5     4    2
    14    16    14    1
    15     6     9    1
    16     6     8    1
    17    14    15    1
    18     4    10    1
    19    10    12    1
    20    10    13    1
    21    10    11    1
