@<TRIPOS>MOLECULE
3
 24 24 0 0 0
SMALL
GASTEIGER

@<TRIPOS>ATOM
      1 N          -1.9054    1.8923    2.1783 N.pl3   1  UNL1       -0.3112
      2 N          -1.4056    3.6645    0.9894 N.pl3   1  UNL1       -0.3112
      3 C          -0.1996    3.4168    3.1188 C.3     1  UNL1       -0.0074
      4 H          -0.3079    2.9387    4.0913 H       1  UNL1        0.0305
      5 H          -0.1025    4.4998    3.1923 H       1  UNL1        0.0305
      6 C          -1.1282    3.0111    2.1545 C.3     1  UNL1        0.1397
      7 C          -2.6284    1.8166    0.9922 C.2     1  UNL1        0.0216
      8 C          -2.3140    2.9083    0.2540 C.2     1  UNL1        0.0216
      9 C          -1.9037    0.9413    3.2553 C.3     1  UNL1        0.0025
     10 H          -0.8753    0.6683    3.5081 H       1  UNL1        0.0428
     11 H          -2.4434    0.0472    2.9556 H       1  UNL1        0.0428
     12 H          -2.3845    1.3653    4.1417 H       1  UNL1        0.0428
     13 C          -3.5485    0.6868    0.7008 C.3     1  UNL1       -0.0251
     14 H          -4.0554    0.8577   -0.2437 H       1  UNL1        0.0290
     15 H          -4.3011    0.5841    1.4824 H       1  UNL1        0.0290
     16 H          -2.9972   -0.2506    0.6250 H       1  UNL1        0.0290
     17 C          -2.7865    3.3382   -1.0877 C.3     1  UNL1       -0.0251
     18 H          -3.5861    2.6866   -1.4261 H       1  UNL1        0.0290
     19 H          -1.9780    3.2912   -1.8178 H       1  UNL1        0.0290
     20 H          -3.1643    4.3596   -1.0552 H       1  UNL1        0.0290
     21 C          -0.6256    4.7759    0.5204 C.3     1  UNL1        0.0025
     22 H          -0.8314    5.6711    1.1147 H       1  UNL1        0.0428
     23 H          -0.8718    4.9820   -0.5181 H       1  UNL1        0.0428
     24 H           0.4588    4.5277    0.6034 H       1  UNL1        0.0428
@<TRIPOS>BOND
     1    19    17    1
     2    18    17    1
     3    17    20    1
     4    17     8    1
     5    23    21    1
     6    14    13    1
     7     8     2    1
     8     8     7    2
     9    21    24    1
    10    21     2    1
    11    21    22    1
    12    16    13    1
    13    13     7    1
    14    13    15    1
    15     2     6    1
    16     7     1    1
    17     6     1    1
    18     6     3    1
    19     1     9    1
    20    11     9    1
    21     3     5    1
    22     3     4    1
    23     9    10    1
    24     9    12    1
