@<TRIPOS>MOLECULE
1
 15 14 0 0 0
SMALL
GASTEIGER

@<TRIPOS>ATOM
      1 C           2.2208    4.3649    6.2803 C.3     1  UNL1       -0.0290
      2 C           3.0081    5.6236    6.5397 C.3     1  UNL1       -0.0343
      3 C           3.0090    6.0215    8.0189 C.3     1  UNL1       -0.0598
      4 C           4.4661    5.4562    6.0787 C.3     1  UNL1       -0.0598
      5 C           2.3710    6.7660    5.7231 C.3     1  UNL1       -0.0598
      6 H           2.4610    4.0346    5.2632 H       1  UNL1        0.0312
      7 H           1.9911    6.0458    8.4052 H       1  UNL1        0.0235
      8 H           3.5963    5.3141    8.6001 H       1  UNL1        0.0235
      9 H           3.4496    7.0091    8.1435 H       1  UNL1        0.0235
     10 H           4.9436    4.6421    6.6184 H       1  UNL1        0.0235
     11 H           4.5071    5.2332    5.0155 H       1  UNL1        0.0235
     12 H           5.0298    6.3691    6.2615 H       1  UNL1        0.0235
     13 H           2.3261    6.4995    4.6701 H       1  UNL1        0.0235
     14 H           1.3607    6.9597    6.0738 H       1  UNL1        0.0235
     15 H           2.9565    7.6779    5.8247 H       1  UNL1        0.0235
@<TRIPOS>BOND
     1    13     5    1
     2    11     4    1
     3     6     1    1
     4     5    15    1
     5     5    14    1
     6     5     2    1
     7     4    12    1
     8     4     2    1
     9     4    10    1
    10     1     2    1
    11     2     3    1
    12     3     9    1
    13     3     7    1
    14     3     8    1
