@<TRIPOS>MOLECULE
1
 16 15 0 0 0
SMALL
GASTEIGER

@<TRIPOS>ATOM
      1 C           1.5759    1.0896    7.2077 C.3     1  UNL1       -0.0476
      2 C           2.9164    0.6567    6.6215 C.3     1  UNL1       -0.0377
      3 C           3.1472   -0.8309    6.9348 C.3     1  UNL1       -0.0601
      4 C           2.9069    0.8407    5.1014 C.3     1  UNL1       -0.0601
      5 C           4.0594    1.4714    7.2331 C.3     1  UNL1       -0.0601
      6 H           0.7834    0.5146    6.7145 H       1  UNL1        0.0271
      7 H           1.5531    0.8003    8.2631 H       1  UNL1        0.0271
      8 H           3.1864   -0.9969    8.0095 H       1  UNL1        0.0235
      9 H           2.3451   -1.4404    6.5234 H       1  UNL1        0.0235
     10 H           4.0874   -1.1687    6.5037 H       1  UNL1        0.0235
     11 H           2.1421    0.2144    4.6468 H       1  UNL1        0.0235
     12 H           2.6986    1.8781    4.8509 H       1  UNL1        0.0235
     13 H           3.8698    0.5625    4.6788 H       1  UNL1        0.0235
     14 H           3.9090    2.5285    7.0231 H       1  UNL1        0.0235
     15 H           4.0942    1.3311    8.3112 H       1  UNL1        0.0235
     16 H           5.0140    1.1576    6.8167 H       1  UNL1        0.0235
@<TRIPOS>BOND
     1    11     4    1
     2    13     4    1
     3    12     4    1
     4     4     2    1
     5    10     3    1
     6     9     3    1
     7     2     3    1
     8     2     1    1
     9     2     5    1
    10     6     1    1
    11    16     5    1
    12     3     8    1
    13    14     5    1
    14     1     7    1
    15     5    15    1
