@<TRIPOS>MOLECULE
18
 34 36 0 0 0
SMALL
GASTEIGER

@<TRIPOS>ATOM
      1 SI         -2.0646    6.0024    2.6778 Si      1  UNL1        0.0000
      2 C           0.7896    9.1938    5.6619 C.ar    1  UNL1        0.0000
      3 H           1.5888    9.9207    5.6320 H       1  UNL1        0.0000
      4 C          -0.0771    9.1486    6.7356 C.ar    1  UNL1        0.0000
      5 H           0.0439    9.8383    7.5583 H       1  UNL1        0.0000
      6 C          -1.1205    8.2241    6.7663 C.ar    1  UNL1        0.0000
      7 H          -1.7963    8.2189    7.6110 H       1  UNL1        0.0000
      8 C          -1.3088    7.3250    5.7359 C.ar    1  UNL1        0.0000
      9 H          -2.1385    6.6300    5.7643 H       1  UNL1        0.0000
     10 C           1.1836    6.7398    1.3844 C.ar    1  UNL1        0.0000
     11 H           0.7285    5.9413    0.8133 H       1  UNL1        0.0000
     12 C           2.2665    7.4271    0.8733 C.ar    1  UNL1        0.0000
     13 H           2.6540    7.1620   -0.1004 H       1  UNL1        0.0000
     14 C           2.8761    8.4561    1.5902 C.ar    1  UNL1        0.0000
     15 H           3.7244    8.9710    1.1629 H       1  UNL1        0.0000
     16 C           2.4070    8.8163    2.8374 C.ar    1  UNL1        0.0000
     17 H           2.8824    9.6103    3.3958 H       1  UNL1        0.0000
     18 C          -0.4141    6.5247    3.4314 C.3     1  UNL1        0.0000
     19 C           0.6827    7.0917    2.6419 C.ar    1  UNL1        0.0000
     20 C           1.3130    8.1432    3.3675 C.ar    1  UNL1        0.0000
     21 C           0.6137    8.3000    4.6134 C.ar    1  UNL1        0.0000
     22 C          -0.4351    7.3374    4.6458 C.ar    1  UNL1        0.0000
     23 C          -3.3230    7.4434    2.7633 C.3     1  UNL1        0.0000
     24 H          -2.9967    8.2751    2.1466 H       1  UNL1        0.0000
     25 H          -3.4285    7.8171    3.7766 H       1  UNL1        0.0000
     26 H          -4.3062    7.1403    2.4162 H       1  UNL1        0.0000
     27 C          -2.7998    4.5069    3.6421 C.3     1  UNL1        0.0000
     28 H          -3.8569    4.3898    3.4215 H       1  UNL1        0.0000
     29 H          -2.7052    4.6283    4.7178 H       1  UNL1        0.0000
     30 H          -2.3056    3.5781    3.3640 H       1  UNL1        0.0000
     31 C          -1.9653    5.4558    0.8489 C.3     1  UNL1        0.0000
     32 H          -1.6344    6.2680    0.2113 H       1  UNL1        0.0000
     33 H          -2.9464    5.1472    0.5018 H       1  UNL1        0.0000
     34 H          -1.2900    4.6178    0.7048 H       1  UNL1        0.0000
@<TRIPOS>BOND
     1    13    12    1
     2    32    31    1
     3    33    31    1
     4    34    31    1
     5    11    10    1
     6    31     1    1
     7    12    10   ar
     8    12    14   ar
     9    15    14    1
    10    10    19   ar
    11    14    16   ar
    12    24    23    1
    13    26    23    1
    14    19    20   ar
    15    19    18    1
    16     1    23    1
    17     1    18    1
    18     1    27    1
    19    23    25    1
    20    16    20   ar
    21    16    17    1
    22    30    27    1
    23    20    21    1
    24    28    27    1
    25    18    22    1
    26    27    29    1
    27    21    22   ar
    28    21     2   ar
    29    22     8   ar
    30     3     2    1
    31     2     4   ar
    32     8     9    1
    33     8     6   ar
    34     4     6   ar
    35     4     5    1
    36     6     7    1
