@<TRIPOS>MOLECULE
2
 16 15 0 0 0
SMALL
GASTEIGER

@<TRIPOS>ATOM
      1 SI          2.1908    2.0243    2.1457 Si      1  UNL1        0.0000
      2 C           0.5725    2.6635    2.8725 C.3     1  UNL1        0.0000
      3 H           0.0867    1.8589    3.4382 H       1  UNL1        0.0000
      4 H          -0.1132    2.9205    2.0564 H       1  UNL1        0.0000
      5 C           2.0486    0.5603    0.9145 C.3     1  UNL1        0.0000
      6 H           1.5859   -0.3039    1.3812 H       1  UNL1        0.0000
      7 H           3.0217    0.2512    0.5455 H       1  UNL1        0.0000
      8 H           1.4433    0.8296    0.0546 H       1  UNL1        0.0000
      9 C           3.3007    1.4407    3.5969 C.3     1  UNL1        0.0000
     10 H           3.3548    2.1923    4.3827 H       1  UNL1        0.0000
     11 H           4.3131    1.2360    3.2641 H       1  UNL1        0.0000
     12 H           2.9156    0.5267    4.0387 H       1  UNL1        0.0000
     13 C           3.0533    3.4656    1.2217 C.3     1  UNL1        0.0000
     14 H           2.5301    3.7043    0.3010 H       1  UNL1        0.0000
     15 H           4.0738    3.2106    0.9538 H       1  UNL1        0.0000
     16 H           3.0844    4.3728    1.8269 H       1  UNL1        0.0000
@<TRIPOS>BOND
     1     8     5    1
     2    14    13    1
     3     7     5    1
     4     5     6    1
     5     5     1    1
     6    15    13    1
     7    13    16    1
     8    13     1    1
     9     4     2    1
    10     1     2    1
    11     1     9    1
    12     2     3    1
    13    11     9    1
    14     9    12    1
    15     9    10    1
