@<TRIPOS>MOLECULE
2
 16 15 0 0 0
SMALL
GASTEIGER

@<TRIPOS>ATOM
      1 SI          3.3546    5.1753    6.7624 Si      1  UNL1        0.0000
      2 C           3.0984    5.2777    4.9046 C.3     1  UNL1        0.0000
      3 H           3.8626    4.6831    4.3906 H       1  UNL1        0.0000
      4 H           3.2480    6.3135    4.5757 H       1  UNL1        0.0000
      5 C           2.8904    3.4000    7.3489 C.3     1  UNL1        0.0000
      6 H           1.9794    3.0382    6.8701 H       1  UNL1        0.0000
      7 H           2.7449    3.3578    8.4245 H       1  UNL1        0.0000
      8 H           3.6841    2.6999    7.1064 H       1  UNL1        0.0000
      9 C           5.1210    5.5056    7.4266 C.3     1  UNL1        0.0000
     10 H           5.8330    4.7981    7.0132 H       1  UNL1        0.0000
     11 H           5.1693    5.4257    8.5086 H       1  UNL1        0.0000
     12 H           5.4566    6.5016    7.1557 H       1  UNL1        0.0000
     13 C           2.1869    6.4410    7.6037 C.3     1  UNL1        0.0000
     14 H           2.6212    7.4344    7.5658 H       1  UNL1        0.0000
     15 H           2.0084    6.2093    8.6498 H       1  UNL1        0.0000
     16 H           1.2241    6.4987    7.0987 H       1  UNL1        0.0000
@<TRIPOS>BOND
     1     3     2    1
     2     4     2    1
     3     2     1    1
     4     1     5    1
     5     1     9    1
     6     1    13    1
     7     6     5    1
     8    10     9    1
     9    16    13    1
    10     8     5    1
    11    12     9    1
    12     5     7    1
    13     9    11    1
    14    14    13    1
    15    13    15    1
