@<TRIPOS>MOLECULE
1
 4 3 0 0 0
SMALL
GASTEIGER

@<TRIPOS>ATOM
      1 C           5.0298   15.7852    2.2421 C.3     1  UNL1       -0.0681
      2 H           5.4080   15.6838    1.2154 H       1  UNL1        0.0227
      3 H           5.8621   16.1882    2.8356 H       1  UNL1        0.0227
      4 H           4.2573   16.5612    2.2102 H       1  UNL1        0.0227
@<TRIPOS>BOND
     1     2     1    1
     2     4     1    1
     3     1     3    1
