@<TRIPOS>MOLECULE
1
 4 3 0 0 0
SMALL
GASTEIGER

@<TRIPOS>ATOM
      1 C           6.4489   13.1349    3.6610 C.3     1  UNL1       -0.0681
      2 H           7.1619   13.3646    2.8591 H       1  UNL1        0.0227
      3 H           6.5558   12.0648    3.8773 H       1  UNL1        0.0227
      4 H           6.7823   13.6844    4.5491 H       1  UNL1        0.0227
@<TRIPOS>BOND
     1     2     1    1
     2     1     3    1
     3     1     4    1
