@<TRIPOS>MOLECULE
1
 4 3 0 0 0
SMALL
GASTEIGER

@<TRIPOS>ATOM
      1 C           4.3942   12.3824    1.2388 C.3     1  UNL1       -0.0681
      2 H           5.2687   11.7183    1.2513 H       1  UNL1        0.0227
      3 H           4.4843   12.9637    0.3116 H       1  UNL1        0.0227
      4 H           3.5225   11.7331    1.1103 H       1  UNL1        0.0227
@<TRIPOS>BOND
     1     3     1    1
     2     4     1    1
     3     1     2    1
