@<TRIPOS>MOLECULE
2
 16 15 0 0 0
SMALL
GASTEIGER

@<TRIPOS>ATOM
      1 SI         12.9050    3.6164   15.2004 Si      1  UNL1        0.0000
      2 C          13.4163    3.8525   13.4073 C.3     1  UNL1        0.0000
      3 H          14.3949    3.3944   13.2319 H       1  UNL1        0.0000
      4 H          13.4893    4.9153   13.1587 H       1  UNL1        0.0000
      5 C          12.7436    1.7664   15.6643 C.3     1  UNL1        0.0000
      6 H          12.3054    1.2522   14.8139 H       1  UNL1        0.0000
      7 H          12.1092    1.6016   16.5309 H       1  UNL1        0.0000
      8 H          13.7102    1.3136   15.8649 H       1  UNL1        0.0000
      9 C          11.2608    4.5176   15.5906 C.3     1  UNL1        0.0000
     10 H          11.3846    5.5963   15.5812 H       1  UNL1        0.0000
     11 H          10.8481    4.2374   16.5560 H       1  UNL1        0.0000
     12 H          10.5425    4.2577   14.8195 H       1  UNL1        0.0000
     13 C          14.2212    4.3687   16.4004 C.3     1  UNL1        0.0000
     14 H          15.1927    3.9015   16.2704 H       1  UNL1        0.0000
     15 H          13.9290    4.2330   17.4373 H       1  UNL1        0.0000
     16 H          14.3456    5.4341   16.2326 H       1  UNL1        0.0000
@<TRIPOS>BOND
     1     4     2    1
     2     3     2    1
     3     2     1    1
     4     6     5    1
     5    12     9    1
     6     1     9    1
     7     1     5    1
     8     1    13    1
     9    10     9    1
    10     9    11    1
    11     5     8    1
    12     5     7    1
    13    16    13    1
    14    14    13    1
    15    13    15    1
