@<TRIPOS>MOLECULE
2
 16 15 0 0 0
SMALL
GASTEIGER

@<TRIPOS>ATOM
      1 SI         10.3498    1.6212    9.4675 Si      1  UNL1        0.0000
      2 C          12.0206    2.3477    9.9278 C.3     1  UNL1        0.0000
      3 H          12.2393    3.2186    9.2959 H       1  UNL1        0.0000
      4 H          12.8175    1.6200    9.7232 H       1  UNL1        0.0000
      5 C           9.9558    0.0544   10.4950 C.3     1  UNL1        0.0000
      6 H          10.6075   -0.7762   10.2364 H       1  UNL1        0.0000
      7 H           8.9300   -0.2784   10.3634 H       1  UNL1        0.0000
      8 H          10.1054    0.2874   11.5456 H       1  UNL1        0.0000
      9 C           8.9411    2.8939    9.7169 C.3     1  UNL1        0.0000
     10 H           8.9985    3.7102    9.0013 H       1  UNL1        0.0000
     11 H           9.0302    3.3120   10.7157 H       1  UNL1        0.0000
     12 H           7.9567    2.4438    9.6245 H       1  UNL1        0.0000
     13 C          10.2718    1.0831    7.6154 C.3     1  UNL1        0.0000
     14 H          10.4481    1.9225    6.9494 H       1  UNL1        0.0000
     15 H           9.2999    0.6676    7.3676 H       1  UNL1        0.0000
     16 H          11.0177    0.3266    7.3906 H       1  UNL1        0.0000
@<TRIPOS>BOND
     1    14    13    1
     2    15    13    1
     3    16    13    1
     4    13     1    1
     5    10     9    1
     6     3     2    1
     7     1     9    1
     8     1     2    1
     9     1     5    1
    10    12     9    1
    11     9    11    1
    12     4     2    1
    13     6     5    1
    14     7     5    1
    15     5     8    1
