@<TRIPOS>MOLECULE
1
 16 15 0 0 0
SMALL
GASTEIGER

@<TRIPOS>ATOM
      1 C           8.0285   14.3401   13.4042 C.3     1  UNL1        0.0000
      2 H           7.3125   14.2859   12.5655 H       1  UNL1        0.0000
      3 H           8.1916   15.4150   13.5785 H       1  UNL1        0.0000
      4 SI          9.6727   13.6117   12.8151 Si      1  UNL1        0.0000
      5 C          10.2850   12.3260   14.1001 C.3     1  UNL1        0.0000
      6 H          10.5627   12.8161   15.0292 H       1  UNL1        0.0000
      7 H          11.1494   11.7720   13.7465 H       1  UNL1        0.0000
      8 H           9.5007   11.6060   14.3314 H       1  UNL1        0.0000
      9 C          11.0620   14.9172   12.5969 C.3     1  UNL1        0.0000
     10 H          10.8157   15.6317   11.8174 H       1  UNL1        0.0000
     11 H          12.0031   14.4487   12.3254 H       1  UNL1        0.0000
     12 H          11.2307   15.4771   13.5110 H       1  UNL1        0.0000
     13 C           9.5615   12.7246   11.1160 C.3     1  UNL1        0.0000
     14 H           8.9392   11.8381   11.1655 H       1  UNL1        0.0000
     15 H          10.5442   12.4131   10.7752 H       1  UNL1        0.0000
     16 H           9.1456   13.3764   10.3535 H       1  UNL1        0.0000
@<TRIPOS>BOND
     1    16    13    1
     2    15    13    1
     3    13    14    1
     4    13     4    1
     5    10     9    1
     6    11     9    1
     7     2     1    1
     8     9     4    1
     9     9    12    1
    10     4     1    1
    11     4     5    1
    12     1     3    1
    13     7     5    1
    14     5     8    1
    15     5     6    1
