@<TRIPOS>MOLECULE
1
 16 15 0 0 0
SMALL
GASTEIGER

@<TRIPOS>ATOM
      1 C           8.1851   13.4285   17.1205 C.3     1  UNL1        0.0000
      2 H           7.4408   13.3150   17.9269 H       1  UNL1        0.0000
      3 H           8.7285   12.4689   17.0951 H       1  UNL1        0.0000
      4 SI          9.4224   14.7445   17.6664 Si      1  UNL1        0.0000
      5 C           8.8660   15.6485   19.2718 C.3     1  UNL1        0.0000
      6 H           8.0095   16.2960   19.1047 H       1  UNL1        0.0000
      7 H           9.6647   16.2691   19.6673 H       1  UNL1        0.0000
      8 H           8.5922   14.9400   20.0476 H       1  UNL1        0.0000
      9 C          11.1632   14.0368   18.0395 C.3     1  UNL1        0.0000
     10 H          11.1412   13.3541   18.8832 H       1  UNL1        0.0000
     11 H          11.8752   14.8230   18.2718 H       1  UNL1        0.0000
     12 H          11.5511   13.4884   17.1866 H       1  UNL1        0.0000
     13 C           9.6505   16.1039   16.3326 C.3     1  UNL1        0.0000
     14 H          10.2557   15.7318   15.5129 H       1  UNL1        0.0000
     15 H          10.1410   16.9874   16.7309 H       1  UNL1        0.0000
     16 H           8.6956   16.4093   15.9136 H       1  UNL1        0.0000
@<TRIPOS>BOND
     1    14    13    1
     2    16    13    1
     3    13    15    1
     4    13     4    1
     5     3     1    1
     6     1     4    1
     7     1     2    1
     8    12     9    1
     9     4     9    1
    10     4     5    1
    11     9    11    1
    12     9    10    1
    13     6     5    1
    14     5     7    1
    15     5     8    1
