@<TRIPOS>MOLECULE
2
 15 14 0 0 0
SMALL
GASTEIGER

@<TRIPOS>ATOM
      1 SI          6.3862   -2.0392    7.5274 Si      1  UNL1        0.0000
      2 C           4.4715   -1.5991    5.1702 C.1     1  UNL1        0.0000
      3 C           5.2203   -1.7564    6.1210 C.1     1  UNL1        0.0000
      4 C           7.3392   -3.6689    7.2073 C.3     1  UNL1        0.0000
      5 H           8.0659   -3.8627    7.9912 H       1  UNL1        0.0000
      6 H           7.8780   -3.6337    6.2645 H       1  UNL1        0.0000
      7 H           6.6665   -4.5213    7.1683 H       1  UNL1        0.0000
      8 C           7.6355   -0.6003    7.6512 C.3     1  UNL1        0.0000
      9 H           8.3314   -0.7475    8.4726 H       1  UNL1        0.0000
     10 H           7.1262    0.3444    7.8166 H       1  UNL1        0.0000
     11 H           8.2179   -0.5024    6.7397 H       1  UNL1        0.0000
     12 C           5.4196   -2.1957    9.1669 C.3     1  UNL1        0.0000
     13 H           6.0882   -2.3502   10.0094 H       1  UNL1        0.0000
     14 H           4.7260   -3.0312    9.1404 H       1  UNL1        0.0000
     15 H           4.8412   -1.2984    9.3653 H       1  UNL1        0.0000
@<TRIPOS>BOND
     1     2     3    3
     2     3     1    1
     3     6     4    1
     4    11     8    1
     5     7     4    1
     6     4     1    1
     7     4     5    1
     8     1     8    1
     9     1    12    1
    10     8    10    1
    11     8     9    1
    12    14    12    1
    13    12    15    1
    14    12    13    1
