@<TRIPOS>MOLECULE
2
 15 14 0 0 0
SMALL
GASTEIGER

@<TRIPOS>ATOM
      1 SI          0.2321    2.6142    4.0849 Si      1  UNL1        0.0000
      2 C           2.0026    0.1172    3.8678 C.1     1  UNL1        0.0000
      3 C           1.3068    1.1142    3.9724 C.1     1  UNL1        0.0000
      4 C          -0.7435    2.7921    2.4471 C.3     1  UNL1        0.0000
      5 H          -1.4066    3.6522    2.4735 H       1  UNL1        0.0000
      6 H          -1.3541    1.9148    2.2527 H       1  UNL1        0.0000
      7 H          -0.0757    2.9207    1.5998 H       1  UNL1        0.0000
      8 C           1.3043    4.1739    4.3405 C.3     1  UNL1        0.0000
      9 H           0.6922    5.0678    4.4229 H       1  UNL1        0.0000
     10 H           1.9928    4.3218    3.5135 H       1  UNL1        0.0000
     11 H           1.8966    4.0953    5.2471 H       1  UNL1        0.0000
     12 C          -1.0017    2.4390    5.5319 C.3     1  UNL1        0.0000
     13 H          -1.6402    3.3140    5.6180 H       1  UNL1        0.0000
     14 H          -0.4797    2.3184    6.4765 H       1  UNL1        0.0000
     15 H          -1.6450    1.5737    5.4011 H       1  UNL1        0.0000
@<TRIPOS>BOND
     1     7     4    1
     2     6     4    1
     3     4     5    1
     4     4     1    1
     5    10     8    1
     6     2     3    3
     7     3     1    1
     8     1     8    1
     9     1    12    1
    10     8     9    1
    11     8    11    1
    12    15    12    1
    13    12    13    1
    14    12    14    1
