@<TRIPOS>MOLECULE
2
 16 15 0 0 0
SMALL
GASTEIGER

@<TRIPOS>ATOM
      1 SI          6.5416    9.2559    3.0649 Si      1  UNL1        0.0000
      2 C           5.8000    8.6999    1.4203 C.3     1  UNL1        0.0000
      3 H           6.6353    8.5795    0.7114 H       1  UNL1        0.0000
      4 H           5.2206    9.5484    1.0175 H       1  UNL1        0.0000
      5 C           7.7953   10.7058    2.9520 C.3     1  UNL1        0.0000
      6 H           8.6393   10.4471    2.3195 H       1  UNL1        0.0000
      7 H           8.1891   10.9768    3.9270 H       1  UNL1        0.0000
      8 H           7.3326   11.5923    2.5290 H       1  UNL1        0.0000
      9 C           7.4725    7.7853    3.8750 C.3     1  UNL1        0.0000
     10 H           6.8154    6.9232    3.9794 H       1  UNL1        0.0000
     11 H           7.8383    8.0424    4.8644 H       1  UNL1        0.0000
     12 H           8.3309    7.4836    3.2818 H       1  UNL1        0.0000
     13 C           5.1590    9.8156    4.2693 C.3     1  UNL1        0.0000
     14 H           4.6364   10.6891    3.8915 H       1  UNL1        0.0000
     15 H           5.5609   10.0747    5.2439 H       1  UNL1        0.0000
     16 H           4.4241    9.0293    4.4142 H       1  UNL1        0.0000
@<TRIPOS>BOND
     1     3     2    1
     2     4     2    1
     3     2     1    1
     4     6     5    1
     5     8     5    1
     6     5     1    1
     7     5     7    1
     8     1     9    1
     9     1    13    1
    10    12     9    1
    11     9    10    1
    12     9    11    1
    13    14    13    1
    14    13    16    1
    15    13    15    1
