@<TRIPOS>MOLECULE
2
 16 15 0 0 0
SMALL
GASTEIGER

@<TRIPOS>ATOM
      1 SI          3.1619    7.7913   -1.8607 Si      1  UNL1        0.0000
      2 C           3.3274    6.4919   -0.5018 C.3     1  UNL1        0.0000
      3 H           3.7144    5.5678   -0.9709 H       1  UNL1        0.0000
      4 H           2.2946    6.2487   -0.1848 H       1  UNL1        0.0000
      5 C           2.3523    9.3704   -1.1378 C.3     1  UNL1        0.0000
      6 H           1.4039    9.1388   -0.6627 H       1  UNL1        0.0000
      7 H           2.1616   10.1104   -1.9086 H       1  UNL1        0.0000
      8 H           2.9921    9.8312   -0.3900 H       1  UNL1        0.0000
      9 C           4.8805    8.2697   -2.5613 C.3     1  UNL1        0.0000
     10 H           5.5329    8.6447   -1.7774 H       1  UNL1        0.0000
     11 H           4.7961    9.0437   -3.3175 H       1  UNL1        0.0000
     12 H           5.3699    7.4176   -3.0232 H       1  UNL1        0.0000
     13 C           2.0875    7.2493   -3.3573 C.3     1  UNL1        0.0000
     14 H           2.4996    6.3662   -3.8366 H       1  UNL1        0.0000
     15 H           2.0211    8.0285   -4.1108 H       1  UNL1        0.0000
     16 H           1.0751    7.0085   -3.0463 H       1  UNL1        0.0000
@<TRIPOS>BOND
     1    15    13    1
     2    14    13    1
     3    13    16    1
     4    13     1    1
     5    11     9    1
     6    12     9    1
     7     9     1    1
     8     9    10    1
     9     7     5    1
    10     1     5    1
    11     1     2    1
    12     5     6    1
    13     5     8    1
    14     3     2    1
    15     2     4    1
