@<TRIPOS>MOLECULE
2
 22 22 0 0 0
SMALL
GASTEIGER

@<TRIPOS>ATOM
      1 SI          3.5984    8.2778    6.6877 Si      1  UNL1        0.0000
      2 C           4.8362    9.3422    5.7737 C.3     1  UNL1        0.0000
      3 H           5.8119    9.3280    6.2681 H       1  UNL1        0.0000
      4 C           3.5152    6.5580    5.8586 C.ar    1  UNL1        0.0000
      5 C           2.3973    6.1274    5.1515 C.ar    1  UNL1        0.0000
      6 H           1.5343    6.7730    5.0897 H       1  UNL1        0.0000
      7 C           2.3680    4.8871    4.5380 C.ar    1  UNL1        0.0000
      8 H           1.4838    4.5669    4.0049 H       1  UNL1        0.0000
      9 C           3.4675    4.0492    4.6109 C.ar    1  UNL1        0.0000
     10 H           3.4463    3.0795    4.1340 H       1  UNL1        0.0000
     11 C           4.5932    4.4601    5.3047 C.ar    1  UNL1        0.0000
     12 H           5.4559    3.8113    5.3677 H       1  UNL1        0.0000
     13 C           4.6108    5.6996    5.9192 C.ar    1  UNL1        0.0000
     14 H           5.4924    6.0096    6.4623 H       1  UNL1        0.0000
     15 C           4.1452    7.9890    8.5018 C.3     1  UNL1        0.0000
     16 H           4.1419    8.9165    9.0661 H       1  UNL1        0.0000
     17 H           3.4878    7.2912    9.0110 H       1  UNL1        0.0000
     18 H           5.1507    7.5839    8.5482 H       1  UNL1        0.0000
     19 C           1.8456    9.0356    6.7400 C.3     1  UNL1        0.0000
     20 H           1.4867    9.2500    5.7394 H       1  UNL1        0.0000
     21 H           1.1377    8.3651    7.2172 H       1  UNL1        0.0000
     22 H           1.8430    9.9669    7.2970 H       1  UNL1        0.0000
@<TRIPOS>BOND
     1     8     7    1
     2    10     9    1
     3     7     9   ar
     4     7     5   ar
     5     9    11   ar
     6     6     5    1
     7     5     4   ar
     8    11    12    1
     9    11    13   ar
    10    20    19    1
    11     2     3    1
    12     2     1    1
    13     4    13   ar
    14     4     1    1
    15    13    14    1
    16     1    19    1
    17     1    15    1
    18    19    21    1
    19    19    22    1
    20    15    18    1
    21    15    17    1
    22    15    16    1
