@<TRIPOS>MOLECULE
1
 22 22 0 0 0
SMALL
GASTEIGER

@<TRIPOS>ATOM
      1 C           1.6024    3.7187    1.0847 C.3     1  UNL1       -0.0241
      2 H           2.0867    4.6561    0.7567 H       1  UNL1        0.0315
      3 C           0.9292    3.0880   -0.0998 C.3     1  UNL1       -0.0065
      4 C           0.0832    1.8713    0.2990 C.3     1  UNL1       -0.0555
      5 H           0.6872    1.1266    0.8113 H       1  UNL1        0.0238
      6 H          -0.3564    1.4163   -0.5872 H       1  UNL1        0.0238
      7 H          -0.7133    2.1876    0.9692 H       1  UNL1        0.0238
      8 C          -0.0018    4.1201   -0.7554 C.3     1  UNL1       -0.0555
      9 H           0.5574    4.9797   -1.1198 H       1  UNL1        0.0238
     10 H          -0.7191    4.4665   -0.0136 H       1  UNL1        0.0238
     11 H          -0.5553    3.6786   -1.5814 H       1  UNL1        0.0238
     12 C           2.0401    2.6218   -1.0349 C.ar    1  UNL1       -0.0414
     13 C           2.1051    2.9508   -2.3823 C.ar    1  UNL1       -0.0580
     14 H           1.3401    3.5589   -2.8382 H       1  UNL1        0.0620
     15 C           3.1542    2.5034   -3.1700 C.ar    1  UNL1       -0.0615
     16 H           3.1863    2.7730   -4.2161 H       1  UNL1        0.0618
     17 C           4.1547    1.7188   -2.6278 C.ar    1  UNL1       -0.0617
     18 H           4.9715    1.3734   -3.2444 H       1  UNL1        0.0618
     19 C           4.0987    1.3796   -1.2855 C.ar    1  UNL1       -0.0615
     20 H           4.8724    0.7641   -0.8499 H       1  UNL1        0.0618
     21 C           3.0536    1.8289   -0.5023 C.ar    1  UNL1       -0.0580
     22 H           3.0120    1.5743    0.5535 H       1  UNL1        0.0620
@<TRIPOS>BOND
     1    16    15    1
     2    18    17    1
     3    15    17   ar
     4    15    13   ar
     5    14    13    1
     6    17    19   ar
     7    13    12   ar
     8    11     8    1
     9    19    20    1
    10    19    21   ar
    11     9     8    1
    12    12    21   ar
    13    12     3    1
    14     8     3    1
    15     8    10    1
    16     6     4    1
    17    21    22    1
    18     3     4    1
    19     3     1    1
    20     4     5    1
    21     4     7    1
    22     2     1    1
