@<TRIPOS>MOLECULE
2
 16 15 0 0 0
SMALL
GASTEIGER

@<TRIPOS>ATOM
      1 SI          5.7494    2.6531    1.0657 Si      1  UNL1        0.0000
      2 C           6.6567    4.2750    1.3701 C.3     1  UNL1        0.0000
      3 H           6.3965    4.9542    0.5476 H       1  UNL1        0.0000
      4 H           7.7314    4.0789    1.2513 H       1  UNL1        0.0000
      5 C           4.1876    2.4208    2.1626 C.3     1  UNL1        0.0000
      6 H           4.0269    1.3733    2.4007 H       1  UNL1        0.0000
      7 H           3.2901    2.7700    1.6611 H       1  UNL1        0.0000
      8 H           4.2871    2.9647    3.0999 H       1  UNL1        0.0000
      9 C           6.8639    1.1243    1.3612 C.3     1  UNL1        0.0000
     10 H           6.3480    0.2030    1.1080 H       1  UNL1        0.0000
     11 H           7.1658    1.0581    2.4000 H       1  UNL1        0.0000
     12 H           7.7649    1.1700    0.7576 H       1  UNL1        0.0000
     13 C           5.1170    2.5000   -0.7480 C.3     1  UNL1        0.0000
     14 H           4.5244    1.6025   -0.8983 H       1  UNL1        0.0000
     15 H           4.4977    3.3497   -1.0230 H       1  UNL1        0.0000
     16 H           5.9452    2.4654   -1.4491 H       1  UNL1        0.0000
@<TRIPOS>BOND
     1    16    13    1
     2    15    13    1
     3    14    13    1
     4    13     1    1
     5     3     2    1
     6    12     9    1
     7     1     9    1
     8     1     2    1
     9     1     5    1
    10    10     9    1
    11     4     2    1
    12     9    11    1
    13     7     5    1
    14     5     6    1
    15     5     8    1
