@<TRIPOS>MOLECULE
2
 16 15 0 0 0
SMALL
GASTEIGER

@<TRIPOS>ATOM
      1 SI          6.9415    2.6534    5.6783 Si      1  UNL1        0.0000
      2 C           6.0344    4.2754    5.3741 C.3     1  UNL1        0.0000
      3 H           6.2942    4.9541    6.1972 H       1  UNL1        0.0000
      4 H           4.9598    4.0784    5.4927 H       1  UNL1        0.0000
      5 C           8.5034    2.4209    4.5817 C.3     1  UNL1        0.0000
      6 H           8.6639    1.3734    4.3437 H       1  UNL1        0.0000
      7 H           9.4009    2.7700    5.0834 H       1  UNL1        0.0000
      8 H           8.4041    2.9648    3.6444 H       1  UNL1        0.0000
      9 C           5.8270    1.1245    5.3831 C.3     1  UNL1        0.0000
     10 H           6.3429    0.2031    5.6365 H       1  UNL1        0.0000
     11 H           5.5252    1.0581    4.3443 H       1  UNL1        0.0000
     12 H           4.9258    1.1701    5.9866 H       1  UNL1        0.0000
     13 C           7.5735    2.5002    7.4922 C.3     1  UNL1        0.0000
     14 H           8.1662    1.6027    7.6423 H       1  UNL1        0.0000
     15 H           8.1931    3.3497    7.7671 H       1  UNL1        0.0000
     16 H           6.7456    2.4655    8.1935 H       1  UNL1        0.0000
@<TRIPOS>BOND
     1     8     5    1
     2     6     5    1
     3    11     9    1
     4     5     7    1
     5     5     1    1
     6     2     4    1
     7     2     1    1
     8     2     3    1
     9     9    10    1
    10     9     1    1
    11     9    12    1
    12     1    13    1
    13    13    14    1
    14    13    15    1
    15    13    16    1
