@<TRIPOS>MOLECULE
1
 14 14 0 0 0
SMALL
GASTEIGER

@<TRIPOS>ATOM
      1 C           2.4903    4.5091   12.1380 C.3     1  UNL1       -0.0237
      2 H           3.2581    4.0730   11.4813 H       1  UNL1        0.0316
      3 H           2.3409    5.5632   11.8773 H       1  UNL1        0.0316
      4 C           2.8725    4.3907   13.5491 C.ar    1  UNL1       -0.0470
      5 C           2.3574    5.2740   14.5115 C.ar    1  UNL1       -0.0586
      6 H           1.6474    6.0342   14.2059 H       1  UNL1        0.0620
      7 C           2.7679    5.2118   15.8278 C.ar    1  UNL1       -0.0615
      8 H           2.3686    5.9138   16.5464 H       1  UNL1        0.0618
      9 C           3.7021    4.2702   16.2314 C.ar    1  UNL1       -0.0617
     10 H           4.0354    4.2368   17.2579 H       1  UNL1        0.0618
     11 C           4.2120    3.3800   15.3016 C.ar    1  UNL1       -0.0615
     12 H           4.9450    2.6451   15.6031 H       1  UNL1        0.0618
     13 C           3.8045    3.4391   13.9838 C.ar    1  UNL1       -0.0586
     14 H           4.2453    2.7645   13.2613 H       1  UNL1        0.0620
@<TRIPOS>BOND
     1     2     1    1
     2     3     1    1
     3     1     4    1
     4    14    13    1
     5     4    13   ar
     6     4     5   ar
     7    13    11   ar
     8     6     5    1
     9     5     7   ar
    10    11    12    1
    11    11     9   ar
    12     7     9   ar
    13     7     8    1
    14     9    10    1
