@<TRIPOS>MOLECULE
1
 16 16 0 0 0
SMALL
GASTEIGER

@<TRIPOS>ATOM
      1 C           3.8702   10.8269   19.2291 C.1     1  UNL1       -0.0092
      2 C           3.5759   13.0881   20.5374 C.ar    1  UNL1        0.0259
      3 C           3.2140   15.4709   21.9608 C.ar    1  UNL1       -0.0504
      4 C           3.9272   14.3128   19.9683 C.ar    1  UNL1       -0.0461
      5 H           4.3494   14.3380   18.9723 H       1  UNL1        0.0630
      6 C           3.7423   11.8868   19.8059 C.1     1  UNL1       -0.0525
      7 C           3.7471   15.4833   20.6757 C.ar    1  UNL1       -0.0577
      8 H           4.0248   16.4260   20.2257 H       1  UNL1        0.0621
      9 C           3.0031   16.7506   22.7083 C.3     1  UNL1       -0.0397
     10 H           3.8256   17.4408   22.5332 H       1  UNL1        0.0278
     11 H           2.9161   16.5688   23.7766 H       1  UNL1        0.0278
     12 H           2.0857   17.2343   22.3708 H       1  UNL1        0.0278
     13 C           3.0457   13.0690   21.8266 C.ar    1  UNL1       -0.0461
     14 H           2.7773   12.1232   22.2750 H       1  UNL1        0.0630
     15 C           2.8684   14.2474   22.5230 C.ar    1  UNL1       -0.0577
     16 H           2.4564   14.2188   23.5219 H       1  UNL1        0.0621
@<TRIPOS>BOND
     1     5     4    1
     2     1     6    3
     3     6     2    1
     4     4     2   ar
     5     4     7   ar
     6     8     7    1
     7     2    13   ar
     8     7     3   ar
     9    13    14    1
    10    13    15   ar
    11     3    15   ar
    12     3     9    1
    13    12     9    1
    14    15    16    1
    15    10     9    1
    16     9    11    1
