@<TRIPOS>MOLECULE
4
 10 10 0 0 0
SMALL
GASTEIGER

@<TRIPOS>ATOM
      1 C           1.2026    6.8798    1.7262 C.2     1  UNL1       -0.0837
      2 C           0.5916    6.3832    2.8969 C.2     1  UNL1       -0.0837
      3 C           0.3526    5.0018    2.7137 C.3     1  UNL1       -0.0127
      4 C           0.8011    4.6575    1.4189 C.3     1  UNL1       -0.0235
      5 C           1.3460    5.8139    0.8171 C.3     1  UNL1       -0.0127
      6 H           1.4238    7.9191    1.5193 H       1  UNL1        0.0572
      7 H           0.2331    6.9844    3.7209 H       1  UNL1        0.0572
      8 H          -0.2308    4.3664    3.3672 H       1  UNL1        0.0352
      9 H           0.6259    3.7074    0.9296 H       1  UNL1        0.0315
     10 H           1.6764    5.9014   -0.2102 H       1  UNL1        0.0352
@<TRIPOS>BOND
     1    10     5    1
     2     5     4    1
     3     5     1    1
     4     9     4    1
     5     4     3    1
     6     6     1    1
     7     1     2    2
     8     3     2    1
     9     3     8    1
    10     2     7    1
