@<TRIPOS>MOLECULE
1
 11 11 0 0 0
SMALL
GASTEIGER

@<TRIPOS>ATOM
      1 C           3.3290    4.5087    4.8280 C.ar    1  UNL1        0.0641
      2 C           2.5040    3.9209    5.7721 C.ar    1  UNL1        0.1720
      3 C           2.8914    3.6074    7.0693 C.ar    1  UNL1        0.1970
      4 C           4.1903    3.9259    7.4652 C.ar    1  UNL1        0.1991
      5 C           5.0641    4.5365    6.5653 C.ar    1  UNL1        0.1970
      6 C           4.6056    4.7937    5.2816 C.ar    1  UNL1        0.1720
      7 F           1.2343    3.6839    5.3475 F       1  UNL1       -0.2016
      8 F           2.0541    3.0274    7.9328 F       1  UNL1       -0.1993
      9 F           4.5928    3.6597    8.7085 F       1  UNL1       -0.1993
     10 F           6.3025    4.8647    6.9476 F       1  UNL1       -0.1993
     11 F           5.4332    5.3714    4.3497 F       1  UNL1       -0.2016
@<TRIPOS>BOND
     1    11     6    1
     2     1     6   ar
     3     1     2   ar
     4     6     5   ar
     5     7     2    1
     6     2     3   ar
     7     5    10    1
     8     5     4   ar
     9     3     4   ar
    10     3     8    1
    11     4     9    1
