@<TRIPOS>MOLECULE
1
 4 3 0 0 0
SMALL
GASTEIGER

@<TRIPOS>ATOM
      1 C           5.3225    4.9208    1.0829 C.3     1  UNL1       -0.0681
      2 H           4.3227    5.0188    1.5086 H       1  UNL1        0.0227
      3 H           5.3362    5.5232    0.1714 H       1  UNL1        0.0227
      4 H           6.0122    5.3914    1.7864 H       1  UNL1        0.0227
@<TRIPOS>BOND
     1     3     1    1
     2     1     2    1
     3     1     4    1
