@<TRIPOS>MOLECULE
1
 4 3 0 0 0
SMALL
GASTEIGER

@<TRIPOS>ATOM
      1 C           6.6197    1.5820   -1.0613 C.3     1  UNL1       -0.0681
      2 H           5.8789    0.8540   -1.3980 H       1  UNL1        0.0227
      3 H           7.5256    1.0226   -0.8229 H       1  UNL1        0.0227
      4 H           6.8578    2.2151   -1.9194 H       1  UNL1        0.0227
@<TRIPOS>BOND
     1     4     1    1
     2     2     1    1
     3     1     3    1
