@<TRIPOS>MOLECULE
3
 36 38 0 0 0
SMALL
GASTEIGER

@<TRIPOS>ATOM
      1 SI          4.7625   -1.1290   -0.8041 Si      1  UNL1        0.0000
      2 O           5.5933    1.3039   -1.5508 O.2     1  UNL1        0.0000
      3 C           5.3541    0.6978   -0.5036 C.2     1  UNL1        0.0000
      4 C           4.3158   -1.8480    0.8818 C.ar    1  UNL1        0.0000
      5 C           5.3337   -2.0679    1.8089 C.ar    1  UNL1        0.0000
      6 C           5.0568   -2.5460    3.0765 C.ar    1  UNL1        0.0000
      7 C           3.7487   -2.8007    3.4500 C.ar    1  UNL1        0.0000
      8 C           2.7234   -2.5782    2.5465 C.ar    1  UNL1        0.0000
      9 C           3.0076   -2.1071    1.2781 C.ar    1  UNL1        0.0000
     10 C           6.2783   -1.9909   -1.5584 C.ar    1  UNL1        0.0000
     11 C           6.7547   -3.2077   -1.0782 C.ar    1  UNL1        0.0000
     12 C           7.8367   -3.8317   -1.6723 C.ar    1  UNL1        0.0000
     13 C           8.4571   -3.2541   -2.7673 C.ar    1  UNL1        0.0000
     14 C           7.9897   -2.0485   -3.2626 C.ar    1  UNL1        0.0000
     15 C           6.9132   -1.4241   -2.6604 C.ar    1  UNL1        0.0000
     16 C           3.4217   -1.2164   -2.1360 C.ar    1  UNL1        0.0000
     17 C           2.5381   -2.2900   -2.1955 C.ar    1  UNL1        0.0000
     18 C           1.6073   -2.3922   -3.2127 C.ar    1  UNL1        0.0000
     19 C           1.5554   -1.4280   -4.2053 C.ar    1  UNL1        0.0000
     20 C           2.4404   -0.3646   -4.1718 C.ar    1  UNL1        0.0000
     21 C           3.3607   -0.2616   -3.1451 C.ar    1  UNL1        0.0000
     22 H           6.3578   -1.8698    1.5280 H       1  UNL1        0.0000
     23 H           5.8624   -2.7099    3.7776 H       1  UNL1        0.0000
     24 H           3.5276   -3.1664    4.4423 H       1  UNL1        0.0000
     25 H           1.6989   -2.7695    2.8345 H       1  UNL1        0.0000
     26 H           2.2005   -1.9335    0.5815 H       1  UNL1        0.0000
     27 H           6.2695   -3.6700   -0.2308 H       1  UNL1        0.0000
     28 H           8.1954   -4.7741   -1.2830 H       1  UNL1        0.0000
     29 H           9.3001   -3.7435   -3.2343 H       1  UNL1        0.0000
     30 H           8.4634   -1.5939   -4.1215 H       1  UNL1        0.0000
     31 H           6.5634   -0.4778   -3.0467 H       1  UNL1        0.0000
     32 H           2.5896   -3.0608   -1.4406 H       1  UNL1        0.0000
     33 H           0.9263   -3.2314   -3.2389 H       1  UNL1        0.0000
     34 H           0.8338   -1.5106   -5.0057 H       1  UNL1        0.0000
     35 H           2.4145    0.3845   -4.9510 H       1  UNL1        0.0000
     36 H           4.0445    0.5738   -3.1252 H       1  UNL1        0.0000
@<TRIPOS>BOND
     1    34    19    1
     2    35    20    1
     3    19    20   ar
     4    19    18   ar
     5    20    21   ar
     6    30    14    1
     7    14    13   ar
     8    14    15   ar
     9    33    18    1
    10    29    13    1
    11    18    17   ar
    12    21    36    1
    13    21    16   ar
    14    31    15    1
    15    13    12   ar
    16    15    10   ar
    17    17    16   ar
    18    17    32    1
    19    16     1    1
    20    12    28    1
    21    12    11   ar
    22    10    11   ar
    23    10     1    1
    24     2     3    2
    25    11    27    1
    26     1     3    1
    27     1     4    1
    28    26     9    1
    29     4     9   ar
    30     4     5   ar
    31     9     8   ar
    32    22     5    1
    33     5     6   ar
    34     8    25    1
    35     8     7   ar
    36     6     7   ar
    37     6    23    1
    38     7    24    1
