@<TRIPOS>MOLECULE
5
 25 25 0 0 0
SMALL
GASTEIGER

@<TRIPOS>ATOM
      1 C           3.3327    1.4389    5.1236 C.3     1  UNL1        0.0052
      2 C           3.5517    2.5028    4.1996 C.2     1  UNL1       -0.0658
      3 C           3.4378    1.9770    2.8841 C.2     1  UNL1       -0.0658
      4 C           3.1265    0.5884    2.9928 C.3     1  UNL1        0.0052
      5 C           3.0506    0.2566    4.3786 C.3     1  UNL1       -0.0053
      6 C           3.1552    1.6383    6.6063 C.3     1  UNL1       -0.0545
      7 C           3.5682    3.9517    4.5980 C.3     1  UNL1       -0.0430
      8 C           3.3868    2.7553    1.5947 C.3     1  UNL1       -0.0430
      9 C           2.6364   -0.2886    1.8715 C.3     1  UNL1       -0.0545
     10 C           2.5283   -1.0527    4.9045 C.3     1  UNL1       -0.0574
     11 H           2.1902    2.1103    6.8068 H       1  UNL1        0.0239
     12 H           3.9277    2.2891    7.0195 H       1  UNL1        0.0239
     13 H           3.1802    0.6922    7.1431 H       1  UNL1        0.0239
     14 H           4.2524    4.1353    5.4252 H       1  UNL1        0.0275
     15 H           2.5701    4.2508    4.9274 H       1  UNL1        0.0275
     16 H           3.8476    4.5922    3.7664 H       1  UNL1        0.0275
     17 H           2.3746    2.7342    1.1857 H       1  UNL1        0.0275
     18 H           4.0573    2.3402    0.8377 H       1  UNL1        0.0275
     19 H           3.6549    3.7966    1.7554 H       1  UNL1        0.0275
     20 H           2.9685    0.0846    0.9043 H       1  UNL1        0.0239
     21 H           1.5431   -0.3011    1.8652 H       1  UNL1        0.0239
     22 H           2.9812   -1.3143    1.9879 H       1  UNL1        0.0239
     23 H           2.6006   -1.0991    5.9886 H       1  UNL1        0.0236
     24 H           1.4767   -1.1686    4.6321 H       1  UNL1        0.0236
     25 H           3.0832   -1.8923    4.4856 H       1  UNL1        0.0236
@<TRIPOS>BOND
     1    18     8    1
     2    20     9    1
     3    17     8    1
     4     8    19    1
     5     8     3    1
     6    21     9    1
     7     9    22    1
     8     9     4    1
     9     3     4    1
    10     3     2    2
    11     4     5    1
    12    16     7    1
    13     2     7    1
    14     2     1    1
    15     5    10    1
    16     5     1    1
    17    25    10    1
    18     7    15    1
    19     7    14    1
    20    24    10    1
    21    10    23    1
    22     1     6    1
    23     6    11    1
    24     6    12    1
    25     6    13    1
