@<TRIPOS>MOLECULE
5
 25 25 0 0 0
SMALL
GASTEIGER

@<TRIPOS>ATOM
      1 C           8.0136    1.4137    4.7920 C.2     1  UNL1       -0.0584
      2 C           7.3092    2.6549    4.7696 C.2     1  UNL1       -0.0477
      3 C           7.0766    2.9998    3.4109 C.2     1  UNL1       -0.0477
      4 C           7.6180    1.9662    2.5913 C.2     1  UNL1       -0.0584
      5 C           8.2156    0.9921    3.4434 C.3     1  UNL1        0.0231
      6 C           8.7126    0.8284    5.9904 C.3     1  UNL1       -0.0424
      7 C           7.1049    3.5295    5.9795 C.3     1  UNL1       -0.0395
      8 C           6.6422    4.3345    2.8739 C.3     1  UNL1       -0.0395
      9 C           7.7613    2.0717    1.0953 C.3     1  UNL1       -0.0424
     10 C           9.1094   -0.1494    3.0408 C.3     1  UNL1       -0.0510
     11 H           9.7563    1.1538    6.0034 H       1  UNL1        0.0275
     12 H           8.2510    1.1608    6.9187 H       1  UNL1        0.0275
     13 H           8.7025   -0.2596    5.9650 H       1  UNL1        0.0275
     14 H           6.5587    3.0123    6.7727 H       1  UNL1        0.0278
     15 H           8.0711    3.8319    6.3883 H       1  UNL1        0.0278
     16 H           6.5592    4.4337    5.7214 H       1  UNL1        0.0278
     17 H           6.1822    4.9455    3.6452 H       1  UNL1        0.0278
     18 H           5.9404    4.2283    2.0477 H       1  UNL1        0.0278
     19 H           7.5124    4.8761    2.4952 H       1  UNL1        0.0278
     20 H           6.8368    2.4127    0.6258 H       1  UNL1        0.0275
     21 H           8.5403    2.7961    0.8450 H       1  UNL1        0.0275
     22 H           8.0400    1.1179    0.6522 H       1  UNL1        0.0275
     23 H          10.1421    0.0719    3.3202 H       1  UNL1        0.0242
     24 H           9.0803   -0.3117    1.9658 H       1  UNL1        0.0242
     25 H           8.8124   -1.0737    3.5366 H       1  UNL1        0.0242
@<TRIPOS>BOND
     1    20     9    1
     2    22     9    1
     3    21     9    1
     4     9     4    1
     5    24    10    1
     6    18     8    1
     7    19     8    1
     8     4     3    2
     9     4     5    1
    10     8     3    1
    11     8    17    1
    12    10    23    1
    13    10     5    1
    14    10    25    1
    15     3     2    1
    16     5     1    1
    17     2     1    2
    18     2     7    1
    19     1     6    1
    20    16     7    1
    21    13     6    1
    22     7    15    1
    23     7    14    1
    24     6    11    1
    25     6    12    1
