@<TRIPOS>MOLECULE
1
 14 14 0 0 0
SMALL
GASTEIGER

@<TRIPOS>ATOM
      1 C          -0.0536    0.1570    2.4573 C.3     1  UNL1       -0.0237
      2 C           1.3438    0.1489    2.0214 C.ar    1  UNL1       -0.0470
      3 C           1.8677    1.1692    1.2025 C.ar    1  UNL1       -0.0586
      4 C           3.2010    1.1788    0.8388 C.ar    1  UNL1       -0.0615
      5 C           4.0578    0.1795    1.2751 C.ar    1  UNL1       -0.0617
      6 C           3.5615   -0.8393    2.0764 C.ar    1  UNL1       -0.0615
      7 C           2.2317   -0.8599    2.4444 C.ar    1  UNL1       -0.0586
      8 H          -0.7150    0.6211    1.7145 H       1  UNL1        0.0316
      9 H          -0.3993   -0.8541    2.6979 H       1  UNL1        0.0316
     10 H           1.2043    1.9413    0.8217 H       1  UNL1        0.0620
     11 H           3.5765    1.9677    0.2019 H       1  UNL1        0.0618
     12 H           5.0978    0.1898    0.9868 H       1  UNL1        0.0618
     13 H           4.2201   -1.6284    2.4095 H       1  UNL1        0.0618
     14 H           1.8528   -1.6692    3.0592 H       1  UNL1        0.0620
@<TRIPOS>BOND
     1    11     4    1
     2    10     3    1
     3     4     3   ar
     4     4     5   ar
     5    12     5    1
     6     3     2   ar
     7     5     6   ar
     8     8     1    1
     9     2     7   ar
    10     2     1    1
    11     6    13    1
    12     6     7   ar
    13     7    14    1
    14     1     9    1
