@<TRIPOS>MOLECULE
1
 14 14 0 0 0
SMALL
GASTEIGER

@<TRIPOS>ATOM
      1 C           2.5785    1.5159    4.5810 C.3     1  UNL1       -0.0237
      2 C           2.7789    2.6246    5.5163 C.ar    1  UNL1       -0.0470
      3 C           3.3144    3.8521    5.0904 C.ar    1  UNL1       -0.0586
      4 C           3.4486    4.9192    5.9555 C.ar    1  UNL1       -0.0615
      5 C           3.0706    4.7992    7.2841 C.ar    1  UNL1       -0.0617
      6 C           2.5744    3.5866    7.7391 C.ar    1  UNL1       -0.0615
      7 C           2.4322    2.5181    6.8758 C.ar    1  UNL1       -0.0586
      8 H           3.1696    1.6690    3.6663 H       1  UNL1        0.0316
      9 H           2.8462    0.5477    5.0282 H       1  UNL1        0.0316
     10 H           3.6404    3.9510    4.0612 H       1  UNL1        0.0620
     11 H           3.8604    5.8520    5.5966 H       1  UNL1        0.0618
     12 H           3.1755    5.6344    7.9599 H       1  UNL1        0.0618
     13 H           2.2997    3.4755    8.7790 H       1  UNL1        0.0618
     14 H           2.0691    1.5696    7.2585 H       1  UNL1        0.0620
@<TRIPOS>BOND
     1     8     1    1
     2    10     3    1
     3     1     9    1
     4     1     2    1
     5     3     2   ar
     6     3     4   ar
     7     2     7   ar
     8    11     4    1
     9     4     5   ar
    10     7    14    1
    11     7     6   ar
    12     5     6   ar
    13     5    12    1
    14     6    13    1
