@<TRIPOS>MOLECULE
1
 14 14 0 0 0
SMALL
GASTEIGER

@<TRIPOS>ATOM
      1 C          -0.4216    0.3028    5.9085 C.3     1  UNL1       -0.0237
      2 C           0.1460   -1.0376    5.7151 C.ar    1  UNL1       -0.0470
      3 C           1.4114   -1.3890    6.2146 C.ar    1  UNL1       -0.0586
      4 C           1.9625   -2.6318    5.9722 C.ar    1  UNL1       -0.0615
      5 C           1.2671   -3.5801    5.2385 C.ar    1  UNL1       -0.0617
      6 C          -0.0046   -3.2759    4.7781 C.ar    1  UNL1       -0.0615
      7 C          -0.5581   -2.0337    5.0171 C.ar    1  UNL1       -0.0586
      8 H          -1.5208    0.2692    5.8866 H       1  UNL1        0.0316
      9 H          -0.0892    0.7501    6.8582 H       1  UNL1        0.0316
     10 H           1.9566   -0.6828    6.8297 H       1  UNL1        0.0620
     11 H           2.9397   -2.8693    6.3680 H       1  UNL1        0.0618
     12 H           1.7004   -4.5500    5.0476 H       1  UNL1        0.0618
     13 H          -0.5719   -4.0195    4.2361 H       1  UNL1        0.0618
     14 H          -1.5687   -1.8293    4.6832 H       1  UNL1        0.0620
@<TRIPOS>BOND
     1    13     6    1
     2    14     7    1
     3     6     7   ar
     4     6     5   ar
     5     7     2   ar
     6    12     5    1
     7     5     4   ar
     8     2     1    1
     9     2     3   ar
    10     8     1    1
    11     1     9    1
    12     4     3   ar
    13     4    11    1
    14     3    10    1
