@<TRIPOS>MOLECULE
1
 14 14 0 0 0
SMALL
GASTEIGER

@<TRIPOS>ATOM
      1 C          -0.1959    0.5483    1.5676 C.3     1  UNL1       -0.0237
      2 H           0.7822    0.6143    1.0668 H       1  UNL1        0.0316
      3 H          -0.4887   -0.5094    1.5974 H       1  UNL1        0.0316
      4 C          -1.1843    1.3299    0.8060 C.ar    1  UNL1       -0.0470
      5 C          -2.4179    0.7908    0.4124 C.ar    1  UNL1       -0.0586
      6 H          -2.6451   -0.2379    0.6626 H       1  UNL1        0.0620
      7 C          -3.3241    1.5301   -0.3251 C.ar    1  UNL1       -0.0615
      8 H          -4.2689    1.0885   -0.6092 H       1  UNL1        0.0618
      9 C          -3.0164    2.8200   -0.7242 C.ar    1  UNL1       -0.0617
     10 H          -3.7151    3.3893   -1.3183 H       1  UNL1        0.0618
     11 C          -1.7892    3.3642   -0.3731 C.ar    1  UNL1       -0.0615
     12 H          -1.5249    4.3550   -0.7156 H       1  UNL1        0.0618
     13 C          -0.8947    2.6429    0.3932 C.ar    1  UNL1       -0.0586
     14 H           0.0671    3.0800    0.6535 H       1  UNL1        0.0620
@<TRIPOS>BOND
     1    10     9    1
     2     9    11   ar
     3     9     7   ar
     4    12    11    1
     5     8     7    1
     6    11    13   ar
     7     7     5   ar
     8    13    14    1
     9    13     4   ar
    10     5     6    1
    11     5     4   ar
    12     4     1    1
    13     2     1    1
    14     1     3    1
