@<TRIPOS>MOLECULE
1
 14 14 0 0 0
SMALL
GASTEIGER

@<TRIPOS>ATOM
      1 C           2.1912    1.5649    3.4921 C.3     1  UNL1       -0.0237
      2 H           2.6398    1.4499    4.4871 H       1  UNL1        0.0316
      3 H           2.5270    0.7309    2.8550 H       1  UNL1        0.0316
      4 C           2.5818    2.8530    2.9028 C.ar    1  UNL1       -0.0470
      5 C           2.5646    3.0621    1.5125 C.ar    1  UNL1       -0.0586
      6 H           2.3104    2.2383    0.8541 H       1  UNL1        0.0620
      7 C           2.9178    4.2790    0.9620 C.ar    1  UNL1       -0.0615
      8 H           2.8909    4.4075   -0.1113 H       1  UNL1        0.0618
      9 C           3.3257    5.3268    1.7726 C.ar    1  UNL1       -0.0617
     10 H           3.6069    6.2750    1.3406 H       1  UNL1        0.0618
     11 C           3.3990    5.1296    3.1424 C.ar    1  UNL1       -0.0615
     12 H           3.7602    5.9244    3.7804 H       1  UNL1        0.0618
     13 C           3.0346    3.9187    3.6970 C.ar    1  UNL1       -0.0586
     14 H           3.1336    3.7747    4.7664 H       1  UNL1        0.0620
@<TRIPOS>BOND
     1     8     7    1
     2     6     5    1
     3     7     5   ar
     4     7     9   ar
     5    10     9    1
     6     5     4   ar
     7     9    11   ar
     8     3     1    1
     9     4     1    1
    10     4    13   ar
    11    11    13   ar
    12    11    12    1
    13     1     2    1
    14    13    14    1
