@<TRIPOS>MOLECULE
1
 4 3 0 0 0
SMALL
GASTEIGER

@<TRIPOS>ATOM
      1 C           3.1798    4.8429    2.6593 C.3     1  UNL1       -0.0681
      2 H           2.4373    5.5302    2.2207 H       1  UNL1        0.0227
      3 H           4.0634    4.9234    2.0051 H       1  UNL1        0.0227
      4 H           3.4795    5.3345    3.6017 H       1  UNL1        0.0227
@<TRIPOS>BOND
     1     3     1    1
     2     2     1    1
     3     1     4    1
