@<TRIPOS>MOLECULE
2
 16 15 0 0 0
SMALL
GASTEIGER

@<TRIPOS>ATOM
      1 SI         11.0270   11.1611    7.6955 Si      1  UNL1        0.0000
      2 C           9.6160    9.9095    7.5991 C.3     1  UNL1        0.0000
      3 H           8.7059   10.4132    7.9627 H       1  UNL1        0.0000
      4 H           9.8264    9.1291    8.3478 H       1  UNL1        0.0000
      5 C          12.7020   10.2741    7.9836 C.3     1  UNL1        0.0000
      6 H          12.7003    9.7247    8.9196 H       1  UNL1        0.0000
      7 H          13.5226   10.9831    8.0234 H       1  UNL1        0.0000
      8 H          12.9183    9.5666    7.1893 H       1  UNL1        0.0000
      9 C          11.1309   12.1523    6.0522 C.3     1  UNL1        0.0000
     10 H          10.5352   11.6639    5.2775 H       1  UNL1        0.0000
     11 H          12.1522   12.2241    5.6917 H       1  UNL1        0.0000
     12 H          10.7560   13.1652    6.1616 H       1  UNL1        0.0000
     13 C          10.8701   12.4465    9.1164 C.3     1  UNL1        0.0000
     14 H           9.9494   13.0165    9.0344 H       1  UNL1        0.0000
     15 H          11.6933   13.1546    9.1064 H       1  UNL1        0.0000
     16 H          10.8689   11.9621   10.0882 H       1  UNL1        0.0000
@<TRIPOS>BOND
     1    10     9    1
     2    11     9    1
     3     9    12    1
     4     9     1    1
     5     8     5    1
     6     2     1    1
     7     2     3    1
     8     2     4    1
     9     1     5    1
    10     1    13    1
    11     5     7    1
    12     5     6    1
    13    14    13    1
    14    15    13    1
    15    13    16    1
