@<TRIPOS>MOLECULE
2
 16 15 0 0 0
SMALL
GASTEIGER

@<TRIPOS>ATOM
      1 SI         11.8992    7.0271    3.6214 Si      1  UNL1        0.0000
      2 C          11.2386    8.5832    4.4619 C.3     1  UNL1        0.0000
      3 H          11.3160    9.3987    3.7221 H       1  UNL1        0.0000
      4 H          11.9745    8.8569    5.2365 H       1  UNL1        0.0000
      5 C          12.4567    7.3468    1.8108 C.3     1  UNL1        0.0000
      6 H          11.7342    7.9567    1.2759 H       1  UNL1        0.0000
      7 H          12.5883    6.4234    1.2541 H       1  UNL1        0.0000
      8 H          13.4036    7.8778    1.7882 H       1  UNL1        0.0000
      9 C          13.4404    6.3153    4.5194 C.3     1  UNL1        0.0000
     10 H          14.3119    6.9350    4.3329 H       1  UNL1        0.0000
     11 H          13.6803    5.3096    4.1870 H       1  UNL1        0.0000
     12 H          13.2972    6.2828    5.5957 H       1  UNL1        0.0000
     13 C          10.5702    5.6249    3.5779 C.3     1  UNL1        0.0000
     14 H           9.7366    5.8653    4.2391 H       1  UNL1        0.0000
     15 H          10.9814    4.6695    3.8922 H       1  UNL1        0.0000
     16 H          10.1637    5.4796    2.5815 H       1  UNL1        0.0000
@<TRIPOS>BOND
     1     7     5    1
     2     6     5    1
     3     8     5    1
     4     5     1    1
     5    16    13    1
     6    13     1    1
     7    13    15    1
     8    13    14    1
     9     1     2    1
    10     1     9    1
    11     3     2    1
    12    11     9    1
    13    10     9    1
    14     2     4    1
    15     9    12    1
