@<TRIPOS>MOLECULE
2
 16 15 0 0 0
SMALL
GASTEIGER

@<TRIPOS>ATOM
      1 SI         12.0260    6.9920    3.7469 Si      1  UNL1        0.0000
      2 C          11.4809    8.7136    4.2823 C.3     1  UNL1        0.0000
      3 H          11.3647    9.3346    3.3847 H       1  UNL1        0.0000
      4 H          12.3063    9.1686    4.8443 H       1  UNL1        0.0000
      5 C          12.7863    6.9312    1.9855 C.3     1  UNL1        0.0000
      6 H          12.1202    7.3796    1.2543 H       1  UNL1        0.0000
      7 H          12.9887    5.9136    1.6650 H       1  UNL1        0.0000
      8 H          13.7221    7.4797    1.9465 H       1  UNL1        0.0000
      9 C          13.3813    6.3270    4.9297 C.3     1  UNL1        0.0000
     10 H          14.3341    6.7990    4.7130 H       1  UNL1        0.0000
     11 H          13.5214    5.2552    4.8281 H       1  UNL1        0.0000
     12 H          13.1483    6.5374    5.9688 H       1  UNL1        0.0000
     13 C          10.5579    5.7466    3.7281 C.3     1  UNL1        0.0000
     14 H           9.7904    6.0250    4.4506 H       1  UNL1        0.0000
     15 H          10.8880    4.7382    3.9625 H       1  UNL1        0.0000
     16 H          10.0873    5.7043    2.7503 H       1  UNL1        0.0000
@<TRIPOS>BOND
     1     6     5    1
     2     7     5    1
     3     8     5    1
     4     5     1    1
     5    16    13    1
     6     3     2    1
     7    13     1    1
     8    13    15    1
     9    13    14    1
    10     1     2    1
    11     1     9    1
    12     2     4    1
    13    10     9    1
    14    11     9    1
    15     9    12    1
