@<TRIPOS>MOLECULE
2
 16 15 0 0 0
SMALL
GASTEIGER

@<TRIPOS>ATOM
      1 SI         11.3293   11.3167    7.5722 Si      1  UNL1        0.0000
      2 C          10.0180    9.9619    7.6491 C.3     1  UNL1        0.0000
      3 H           9.1012   10.3777    8.0805 H       1  UNL1        0.0000
      4 H          10.3528    9.1901    8.3516 H       1  UNL1        0.0000
      5 C          11.2515   12.2182    5.8773 C.3     1  UNL1        0.0000
      6 H          11.9083   11.7369    5.1572 H       1  UNL1        0.0000
      7 H          11.5662   13.2546    5.9574 H       1  UNL1        0.0000
      8 H          10.2442   12.2182    5.4602 H       1  UNL1        0.0000
      9 C          11.1653   12.6555    8.9365 C.3     1  UNL1        0.0000
     10 H          10.2292   13.1971    8.8408 H       1  UNL1        0.0000
     11 H          11.9706   13.3816    8.8853 H       1  UNL1        0.0000
     12 H          11.1869   12.2120    9.9270 H       1  UNL1        0.0000
     13 C          13.0684   10.5305    7.7512 C.3     1  UNL1        0.0000
     14 H          13.2389   10.1814    8.7644 H       1  UNL1        0.0000
     15 H          13.8517   11.2434    7.5155 H       1  UNL1        0.0000
     16 H          13.1846    9.6797    7.0858 H       1  UNL1        0.0000
@<TRIPOS>BOND
     1     6     5    1
     2     8     5    1
     3     5     7    1
     4     5     1    1
     5    16    13    1
     6    15    13    1
     7     1     2    1
     8     1    13    1
     9     1     9    1
    10     2     3    1
    11     2     4    1
    12    13    14    1
    13    10     9    1
    14    11     9    1
    15     9    12    1
