@<TRIPOS>MOLECULE
1
 4 3 0 0 0
SMALL
GASTEIGER

@<TRIPOS>ATOM
      1 C           4.3586    1.8720   -1.0122 C.3     1  UNL1       -0.0681
      2 H           5.2471    1.9599   -1.6427 H       1  UNL1        0.0227
      3 H           4.3704    0.8474   -0.6316 H       1  UNL1        0.0227
      4 H           3.4914    1.9498   -1.6783 H       1  UNL1        0.0227
@<TRIPOS>BOND
     1     4     1    1
     2     2     1    1
     3     1     3    1
