@<TRIPOS>MOLECULE
1
 4 3 0 0 0
SMALL
GASTEIGER

@<TRIPOS>ATOM
      1 C           6.0904    2.4519    1.1291 C.3     1  UNL1       -0.0681
      2 H           6.8751    2.5008    0.3726 H       1  UNL1        0.0227
      3 H           6.4807    2.9536    2.0178 H       1  UNL1        0.0227
      4 H           6.0024    1.3939    1.3808 H       1  UNL1        0.0227
@<TRIPOS>BOND
     1     2     1    1
     2     1     4    1
     3     1     3    1
