@<TRIPOS>MOLECULE
2
 16 15 0 0 0
SMALL
GASTEIGER

@<TRIPOS>ATOM
      1 SI          0.5196   -1.4024    7.1129 Si      1  UNL1        0.0000
      2 C           1.1065    0.2395    6.3810 C.3     1  UNL1        0.0000
      3 H           2.1873    0.2974    6.5672 H       1  UNL1        0.0000
      4 H           0.6787    1.0298    7.0104 H       1  UNL1        0.0000
      5 C          -1.3784   -1.6074    6.9945 C.3     1  UNL1        0.0000
      6 H          -1.9013   -0.7378    7.3788 H       1  UNL1        0.0000
      7 H          -1.7089   -2.4661    7.5712 H       1  UNL1        0.0000
      8 H          -1.6989   -1.7608    5.9694 H       1  UNL1        0.0000
      9 C           0.9814   -1.5863    8.9675 C.3     1  UNL1        0.0000
     10 H           2.0512   -1.4824    9.1223 H       1  UNL1        0.0000
     11 H           0.6871   -2.5540    9.3617 H       1  UNL1        0.0000
     12 H           0.4919   -0.8271    9.5695 H       1  UNL1        0.0000
     13 C           1.3173   -2.8946    6.2136 C.3     1  UNL1        0.0000
     14 H           1.1807   -2.8196    5.1394 H       1  UNL1        0.0000
     15 H           0.8696   -3.8287    6.5381 H       1  UNL1        0.0000
     16 H           2.3824   -2.9605    6.4127 H       1  UNL1        0.0000
@<TRIPOS>BOND
     1    14    13    1
     2     8     5    1
     3    13    16    1
     4    13    15    1
     5    13     1    1
     6     2     3    1
     7     2     4    1
     8     2     1    1
     9     5     1    1
    10     5     6    1
    11     5     7    1
    12     1     9    1
    13     9    10    1
    14     9    11    1
    15     9    12    1
