@<TRIPOS>MOLECULE
1
 16 15 0 0 0
SMALL
GASTEIGER

@<TRIPOS>ATOM
      1 C           7.8210   16.5035    4.7149 C.3     1  UNL1        0.0000
      2 SI          6.5731   17.8871    5.0933 Si      1  UNL1        0.0000
      3 C           4.8588   17.4067    4.4067 C.3     1  UNL1        0.0000
      4 H           4.4990   16.5051    4.8914 H       1  UNL1        0.0000
      5 H           4.1285   18.1907    4.5814 H       1  UNL1        0.0000
      6 H           4.8906   17.2187    3.3378 H       1  UNL1        0.0000
      7 C           7.1173   19.5432    4.2953 C.3     1  UNL1        0.0000
      8 H           6.4163   20.3365    4.5315 H       1  UNL1        0.0000
      9 H           8.0961   19.8583    4.6443 H       1  UNL1        0.0000
     10 H           7.1669   19.4626    3.2145 H       1  UNL1        0.0000
     11 C           6.4225   18.1808    6.9805 C.3     1  UNL1        0.0000
     12 H           5.4903   18.6862    7.2117 H       1  UNL1        0.0000
     13 H           6.4189   17.2290    7.5075 H       1  UNL1        0.0000
     14 H           7.2250   18.7960    7.3774 H       1  UNL1        0.0000
     15 H           7.4998   16.0574    3.7605 H       1  UNL1        0.0000
     16 H           8.8176   16.9276    4.5336 H       1  UNL1        0.0000
@<TRIPOS>BOND
     1    10     7    1
     2     6     3    1
     3    15     1    1
     4     7     8    1
     5     7     9    1
     6     7     2    1
     7     3     5    1
     8     3     4    1
     9     3     2    1
    10    16     1    1
    11     1     2    1
    12     2    11    1
    13    11    12    1
    14    11    14    1
    15    11    13    1
