@<TRIPOS>MOLECULE
2
 16 15 0 0 0
SMALL
GASTEIGER

@<TRIPOS>ATOM
      1 SI          6.5672   11.8089    5.0885 Si      1  UNL1        0.0000
      2 C           7.8119   13.1926    4.6993 C.3     1  UNL1        0.0000
      3 C           4.8485   12.2897    4.4134 C.3     1  UNL1        0.0000
      4 C           7.1052   10.1500    4.2922 C.3     1  UNL1        0.0000
      5 C           6.4283   11.5196    6.9777 C.3     1  UNL1        0.0000
      6 H           7.4846   13.6339    3.7451 H       1  UNL1        0.0000
      7 H           8.8081   12.7683    4.5139 H       1  UNL1        0.0000
      8 H           4.4943   13.1941    4.8973 H       1  UNL1        0.0000
      9 H           4.1180   11.5080    4.5966 H       1  UNL1        0.0000
     10 H           4.8728   12.4736    3.3436 H       1  UNL1        0.0000
     11 H           6.4043    9.3581    4.5335 H       1  UNL1        0.0000
     12 H           8.0852    9.8346    4.6377 H       1  UNL1        0.0000
     13 H           7.1502   10.2280    3.2110 H       1  UNL1        0.0000
     14 H           5.4981   11.0135    7.2156 H       1  UNL1        0.0000
     15 H           6.4266   12.4727    7.5029 H       1  UNL1        0.0000
     16 H           7.2336   10.9058    7.3712 H       1  UNL1        0.0000
@<TRIPOS>BOND
     1    13     4    1
     2    10     3    1
     3     6     2    1
     4     4    11    1
     5     4    12    1
     6     4     1    1
     7     3     9    1
     8     3     8    1
     9     3     1    1
    10     7     2    1
    11     2     1    1
    12     1     5    1
    13     5    14    1
    14     5    16    1
    15     5    15    1
