@<TRIPOS>MOLECULE
1
 22 22 0 0 0
SMALL
GASTEIGER

@<TRIPOS>ATOM
      1 C           2.0349    5.3108    7.0692 C.3     1  UNL1       -0.0241
      2 C           3.2898    4.5457    6.7402 C.3     1  UNL1       -0.0065
      3 C           3.0944    3.8127    5.4001 C.3     1  UNL1       -0.0555
      4 C           4.4723    5.5258    6.6059 C.3     1  UNL1       -0.0555
      5 C           3.6615    3.5245    7.8173 C.ar    1  UNL1       -0.0414
      6 C           4.8261    2.7725    7.6873 C.ar    1  UNL1       -0.0580
      7 C           5.2067    1.8642    8.6584 C.ar    1  UNL1       -0.0615
      8 C           4.4299    1.6847    9.7898 C.ar    1  UNL1       -0.0617
      9 C           3.2679    2.4210    9.9315 C.ar    1  UNL1       -0.0615
     10 C           2.8904    3.3288    8.9561 C.ar    1  UNL1       -0.0580
     11 H           2.2898    6.3425    7.3442 H       1  UNL1        0.0315
     12 H           2.1960    3.2009    5.4460 H       1  UNL1        0.0238
     13 H           3.9461    3.1768    5.1729 H       1  UNL1        0.0238
     14 H           2.9813    4.5378    4.5965 H       1  UNL1        0.0238
     15 H           4.6817    5.9933    7.5663 H       1  UNL1        0.0238
     16 H           4.2336    6.3049    5.8847 H       1  UNL1        0.0238
     17 H           5.3731    5.0200    6.2680 H       1  UNL1        0.0238
     18 H           5.4557    2.8855    6.8173 H       1  UNL1        0.0620
     19 H           6.1154    1.2931    8.5298 H       1  UNL1        0.0618
     20 H           4.7281    0.9770   10.5498 H       1  UNL1        0.0618
     21 H           2.6475    2.2925   10.8068 H       1  UNL1        0.0618
     22 H           1.9727    3.8891    9.0808 H       1  UNL1        0.0620
@<TRIPOS>BOND
     1    14     3    1
     2    13     3    1
     3     3    12    1
     4     3     2    1
     5    16     4    1
     6    17     4    1
     7     4     2    1
     8     4    15    1
     9     2     1    1
    10     2     5    1
    11    18     6    1
    12     1    11    1
    13     6     5   ar
    14     6     7   ar
    15     5    10   ar
    16    19     7    1
    17     7     8   ar
    18    10    22    1
    19    10     9   ar
    20     8     9   ar
    21     8    20    1
    22     9    21    1
