@<TRIPOS>MOLECULE
1
 22 22 0 0 0
SMALL
GASTEIGER

@<TRIPOS>ATOM
      1 C          15.5263    8.0371    9.9527 C.3     1  UNL1       -0.0241
      2 C          14.3500    7.6257    9.1129 C.3     1  UNL1       -0.0065
      3 C          14.4050    8.2971    7.7270 C.3     1  UNL1       -0.0555
      4 C          13.0607    8.0664    9.8296 C.3     1  UNL1       -0.0555
      5 C          14.3342    6.1150    8.8750 C.ar    1  UNL1       -0.0414
      6 C          15.4062    5.3068    9.2369 C.ar    1  UNL1       -0.0580
      7 C          15.3980    3.9467    8.9809 C.ar    1  UNL1       -0.0615
      8 C          14.3166    3.3624    8.3458 C.ar    1  UNL1       -0.0617
      9 C          13.2487    4.1557    7.9651 C.ar    1  UNL1       -0.0615
     10 C          13.2610    5.5147    8.2233 C.ar    1  UNL1       -0.0580
     11 H          16.2694    8.5869    9.3538 H       1  UNL1        0.0315
     12 H          14.4527    9.3791    7.8348 H       1  UNL1        0.0238
     13 H          13.5243    8.0511    7.1383 H       1  UNL1        0.0238
     14 H          15.2851    7.9626    7.1805 H       1  UNL1        0.0238
     15 H          13.0864    7.7269   10.8639 H       1  UNL1        0.0238
     16 H          12.1750    7.6679    9.3433 H       1  UNL1        0.0238
     17 H          12.9949    9.1520    9.8230 H       1  UNL1        0.0238
     18 H          16.2656    5.7532    9.7263 H       1  UNL1        0.0620
     19 H          16.2430    3.3420    9.2766 H       1  UNL1        0.0618
     20 H          14.3065    2.3008    8.1451 H       1  UNL1        0.0618
     21 H          12.3998    3.7142    7.4620 H       1  UNL1        0.0618
     22 H          12.4164    6.1069    7.9039 H       1  UNL1        0.0620
@<TRIPOS>BOND
     1    13     3    1
     2    14     3    1
     3    21     9    1
     4     3    12    1
     5     3     2    1
     6    22    10    1
     7     9    10   ar
     8     9     8   ar
     9    20     8    1
    10    10     5   ar
    11     8     7   ar
    12     5     2    1
    13     5     6   ar
    14     7     6   ar
    15     7    19    1
    16     2     4    1
    17     2     1    1
    18     6    18    1
    19    16     4    1
    20    11     1    1
    21    17     4    1
    22     4    15    1
