@<TRIPOS>MOLECULE
2
 17 17 0 0 0
SMALL
GASTEIGER

@<TRIPOS>ATOM
      1 C          -0.2173   10.8579    6.3552 C.3     1  UNL1       -0.0579
      2 C          -0.2259    9.7260    5.3037 C.3     1  UNL1       -0.0121
      3 C          -1.4331    9.7454    4.4353 C.ar    1  UNL1       -0.0440
      4 C          -2.6873   10.1960    4.8707 C.ar    1  UNL1       -0.0583
      5 C          -3.7851   10.1871    4.0303 C.ar    1  UNL1       -0.0615
      6 C          -3.6724    9.7475    2.7221 C.ar    1  UNL1       -0.0617
      7 C          -2.4361    9.3169    2.2624 C.ar    1  UNL1       -0.0615
      8 C          -1.3415    9.3158    3.1006 C.ar    1  UNL1       -0.0583
      9 H           0.7740   10.9468    6.8032 H       1  UNL1        0.0236
     10 H          -0.9336   10.7004    7.1634 H       1  UNL1        0.0236
     11 H          -0.4560   11.8189    5.8860 H       1  UNL1        0.0236
     12 H           0.6403    9.9161    4.6436 H       1  UNL1        0.0352
     13 H          -2.8105   10.5642    5.8791 H       1  UNL1        0.0620
     14 H          -4.7388   10.5396    4.3985 H       1  UNL1        0.0618
     15 H          -4.5298    9.7515    2.0658 H       1  UNL1        0.0618
     16 H          -2.3277    8.9901    1.2373 H       1  UNL1        0.0618
     17 H          -0.3817    8.9844    2.7223 H       1  UNL1        0.0620
@<TRIPOS>BOND
     1    16     7    1
     2    15     6    1
     3     7     6   ar
     4     7     8   ar
     5     6     5   ar
     6    17     8    1
     7     8     3   ar
     8     5    14    1
     9     5     4   ar
    10     3     4   ar
    11     3     2    1
    12    12     2    1
    13     4    13    1
    14     2     1    1
    15    11     1    1
    16     1     9    1
    17     1    10    1
