@<TRIPOS>MOLECULE
2
 16 15 0 0 0
SMALL
GASTEIGER

@<TRIPOS>ATOM
      1 SI         -1.7569    7.6281    4.1673 Si      1  UNL1        0.0000
      2 C          -1.8682    6.1159    3.0433 C.3     1  UNL1        0.0000
      3 C          -0.0209    7.6910    4.9901 C.3     1  UNL1        0.0000
      4 C          -2.0181    9.3143    3.2950 C.3     1  UNL1        0.0000
      5 C          -3.0536    7.5210    5.5759 C.3     1  UNL1        0.0000
      6 H          -1.4205    6.3818    2.0774 H       1  UNL1        0.0000
      7 H          -2.9288    5.9307    2.8274 H       1  UNL1        0.0000
      8 H          -0.0208    8.3269    5.8703 H       1  UNL1        0.0000
      9 H           0.7197    8.0938    4.3057 H       1  UNL1        0.0000
     10 H           0.3155    6.6968    5.2979 H       1  UNL1        0.0000
     11 H          -1.8784   10.1477    3.9767 H       1  UNL1        0.0000
     12 H          -3.0195    9.3918    2.8831 H       1  UNL1        0.0000
     13 H          -1.3180    9.4413    2.4750 H       1  UNL1        0.0000
     14 H          -3.0903    8.4485    6.1385 H       1  UNL1        0.0000
     15 H          -2.8303    6.7236    6.2777 H       1  UNL1        0.0000
     16 H          -4.0485    7.3436    5.1798 H       1  UNL1        0.0000
@<TRIPOS>BOND
     1     6     2    1
     2    13     4    1
     3     7     2    1
     4    12     4    1
     5     2     1    1
     6     4    11    1
     7     4     1    1
     8     1     3    1
     9     1     5    1
    10     9     3    1
    11     3    10    1
    12     3     8    1
    13    16     5    1
    14     5    14    1
    15     5    15    1
