@<TRIPOS>MOLECULE
3
 28 27 0 0 0
SMALL
GASTEIGER

@<TRIPOS>ATOM
      1 SI          2.5567    5.0326    1.5346 Si      1  UNL1        0.0000
      2 SI          4.1085    2.2642    1.5582 Si      1  UNL1        0.0000
      3 C           2.8569    3.3915    2.4250 C.3     1  UNL1        0.0000
      4 C           2.1005    4.7979   -0.3133 C.3     1  UNL1        0.0000
      5 C           1.1757    6.0391    2.4248 C.3     1  UNL1        0.0000
      6 C           4.0322    6.2626    1.5389 C.3     1  UNL1        0.0000
      7 C           3.4395    1.4964   -0.0701 C.3     1  UNL1        0.0000
      8 C           4.6962    0.9389    2.8216 C.3     1  UNL1        0.0000
      9 C           5.7339    3.1340    1.0134 C.3     1  UNL1        0.0000
     10 H           2.9935    4.5800   -0.8880 H       1  UNL1        0.0000
     11 H           1.6595    5.6985   -0.7294 H       1  UNL1        0.0000
     12 H           1.4053    3.9819   -0.4766 H       1  UNL1        0.0000
     13 H           0.6964    6.7346    1.7415 H       1  UNL1        0.0000
     14 H           1.5990    6.6332    3.2298 H       1  UNL1        0.0000
     15 H           0.4007    5.4058    2.8539 H       1  UNL1        0.0000
     16 H           3.7295    7.2461    1.1914 H       1  UNL1        0.0000
     17 H           4.8383    5.9242    0.8993 H       1  UNL1        0.0000
     18 H           4.4409    6.3830    2.5376 H       1  UNL1        0.0000
     19 H           3.9619    1.9087   -0.9268 H       1  UNL1        0.0000
     20 H           2.3827    1.7008   -0.2073 H       1  UNL1        0.0000
     21 H           3.5819    0.4217   -0.0922 H       1  UNL1        0.0000
     22 H           5.7746    0.9680    2.9401 H       1  UNL1        0.0000
     23 H           4.4325   -0.0667    2.5147 H       1  UNL1        0.0000
     24 H           4.2511    1.1061    3.8007 H       1  UNL1        0.0000
     25 H           6.4728    2.4117    0.6787 H       1  UNL1        0.0000
     26 H           6.1763    3.6999    1.8266 H       1  UNL1        0.0000
     27 H           5.5589    3.8218    0.1930 H       1  UNL1        0.0000
     28 H           3.3652    3.6565    3.3678 H       1  UNL1        0.0000
@<TRIPOS>BOND
     1    19     7    1
     2    10     4    1
     3    11     4    1
     4    12     4    1
     5     4     1    1
     6    20     7    1
     7    21     7    1
     8     7     2    1
     9    27     9    1
    10    25     9    1
    11    17     6    1
    12     9     2    1
    13     9    26    1
    14    16     6    1
    15     1     6    1
    16     1     5    1
    17     1     3    1
    18     6    18    1
    19     2     3    1
    20     2     8    1
    21    13     5    1
    22     5    15    1
    23     5    14    1
    24     3    28    1
    25    23     8    1
    26     8    22    1
    27     8    24    1
