@<TRIPOS>MOLECULE
1
 11 11 0 0 0
SMALL
GASTEIGER

@<TRIPOS>ATOM
      1 C           1.6339    0.3569    3.3073 C.ar    1  UNL1       -0.0179
      2 C           1.7018   -0.3741    2.1059 C.ar    1  UNL1       -0.0540
      3 C           2.0608   -1.7127    2.0447 C.ar    1  UNL1       -0.0612
      4 C           2.3733   -2.4050    3.2007 C.ar    1  UNL1       -0.0617
      5 C           2.3312   -1.7305    4.4060 C.ar    1  UNL1       -0.0612
      6 C           1.9754   -0.3887    4.4503 C.ar    1  UNL1       -0.0540
      7 H           1.4679    0.1122    1.1649 H       1  UNL1        0.0624
      8 H           2.0944   -2.2180    1.0884 H       1  UNL1        0.0618
      9 H           2.6485   -3.4493    3.1622 H       1  UNL1        0.0618
     10 H           2.5795   -2.2493    5.3224 H       1  UNL1        0.0618
     11 H           1.9863    0.0720    5.4339 H       1  UNL1        0.0624
@<TRIPOS>BOND
     1     8     3    1
     2     7     2    1
     3     3     2   ar
     4     3     4   ar
     5     2     1   ar
     6     9     4    1
     7     4     5   ar
     8     1     6   ar
     9     5     6   ar
    10     5    10    1
    11     6    11    1
