@<TRIPOS>MOLECULE
1
 4 3 0 0 0
SMALL
GASTEIGER

@<TRIPOS>ATOM
      1 C          -0.2555    2.9293    1.6620 C.3     1  UNL1       -0.0681
      2 H          -0.5430    2.8386    2.7252 H       1  UNL1        0.0227
      3 H          -0.6826    2.0500    1.1471 H       1  UNL1        0.0227
      4 H          -0.7946    3.8028    1.2621 H       1  UNL1        0.0227
@<TRIPOS>BOND
     1     3     1    1
     2     4     1    1
     3     1     2    1
