@<TRIPOS>MOLECULE
1
 4 3 0 0 0
SMALL
GASTEIGER

@<TRIPOS>ATOM
      1 C           2.1086    3.1532   -0.7834 C.3     1  UNL1       -0.0681
      2 H           1.9354    2.1770   -1.2685 H       1  UNL1        0.0227
      3 H           1.4130    3.8585   -1.2634 H       1  UNL1        0.0227
      4 H           3.1282    3.4673   -1.0701 H       1  UNL1        0.0227
@<TRIPOS>BOND
     1     2     1    1
     2     3     1    1
     3     4     1    1
