@<TRIPOS>MOLECULE
2
 16 15 0 0 0
SMALL
GASTEIGER

@<TRIPOS>ATOM
      1 SI          0.4671   -0.1822    6.3203 Si      1  UNL1        0.0000
      2 C           1.9678   -0.8924    7.2569 C.3     1  UNL1        0.0000
      3 C           0.0590    1.5959    6.8974 C.3     1  UNL1        0.0000
      4 C          -1.0594   -1.2869    6.6582 C.3     1  UNL1        0.0000
      5 C           0.8059   -0.1518    4.4409 C.3     1  UNL1        0.0000
      6 H           2.3555   -1.7306    6.6718 H       1  UNL1        0.0000
      7 H           1.6306   -1.3165    8.2037 H       1  UNL1        0.0000
      8 H          -0.7882    1.9874    6.3423 H       1  UNL1        0.0000
      9 H           0.8964    2.2665    6.7281 H       1  UNL1        0.0000
     10 H          -0.2038    1.6395    7.9503 H       1  UNL1        0.0000
     11 H          -1.9297   -0.9169    6.1263 H       1  UNL1        0.0000
     12 H          -1.3085   -1.3127    7.7145 H       1  UNL1        0.0000
     13 H          -0.8898   -2.3093    6.3363 H       1  UNL1        0.0000
     14 H           1.1571   -1.1136    4.0800 H       1  UNL1        0.0000
     15 H           1.5583    0.5864    4.1832 H       1  UNL1        0.0000
     16 H          -0.0964    0.0941    3.8898 H       1  UNL1        0.0000
@<TRIPOS>BOND
     1    16     5    1
     2    14     5    1
     3    15     5    1
     4     5     1    1
     5    11     4    1
     6     1     4    1
     7     1     3    1
     8     1     2    1
     9    13     4    1
    10     8     3    1
    11     4    12    1
    12     6     2    1
    13     9     3    1
    14     3    10    1
    15     2     7    1
