@<TRIPOS>MOLECULE
1
 16 15 0 0 0
SMALL
GASTEIGER

@<TRIPOS>ATOM
      1 C           9.5623    4.1969   16.1128 C.3     1  UNL1        0.0000
      2 H           9.9730    5.0304   16.6976 H       1  UNL1        0.0000
      3 H           9.3349    3.3980   16.8318 H       1  UNL1        0.0000
      4 SI         10.8421    3.5962   14.8718 Si      1  UNL1        0.0000
      5 C          10.2436    2.0532   13.8982 C.3     1  UNL1        0.0000
      6 H          10.8970    1.8527   13.0541 H       1  UNL1        0.0000
      7 H           9.2397    2.1954   13.5073 H       1  UNL1        0.0000
      8 H          10.2395    1.1626   14.5195 H       1  UNL1        0.0000
      9 C          12.4994    3.0734   15.6989 C.3     1  UNL1        0.0000
     10 H          12.3480    2.2750   16.4192 H       1  UNL1        0.0000
     11 H          12.9559    3.9044   16.2279 H       1  UNL1        0.0000
     12 H          13.2183    2.7191   14.9667 H       1  UNL1        0.0000
     13 C          11.2886    4.9576   13.5979 C.3     1  UNL1        0.0000
     14 H          11.8586    5.7610   14.0541 H       1  UNL1        0.0000
     15 H          10.3921    5.3885   13.1609 H       1  UNL1        0.0000
     16 H          11.8903    4.5541   12.7888 H       1  UNL1        0.0000
@<TRIPOS>BOND
     1    16    13    1
     2     6     5    1
     3    15    13    1
     4     7     5    1
     5    13    14    1
     6    13     4    1
     7     5     8    1
     8     5     4    1
     9     4     9    1
    10     4     1    1
    11    12     9    1
    12     9    11    1
    13     9    10    1
    14     1     2    1
    15     1     3    1
