@<TRIPOS>MOLECULE
1
 16 15 0 0 0
SMALL
GASTEIGER

@<TRIPOS>ATOM
      1 C           6.5148    5.4366   17.0556 C.3     1  UNL1        0.0000
      2 H           6.1173    6.4370   16.8401 H       1  UNL1        0.0000
      3 H           5.6456    4.7728   17.1131 H       1  UNL1        0.0000
      4 SI          7.2278    5.5045   18.7954 Si      1  UNL1        0.0000
      5 C           7.8747    3.8048   19.4081 C.3     1  UNL1        0.0000
      6 H           7.2538    2.9966   19.0322 H       1  UNL1        0.0000
      7 H           7.8606    3.7494   20.4925 H       1  UNL1        0.0000
      8 H           8.8970    3.6258   19.0882 H       1  UNL1        0.0000
      9 C           8.6413    6.7844   18.9871 C.3     1  UNL1        0.0000
     10 H           8.9065    6.9209   20.0311 H       1  UNL1        0.0000
     11 H           8.3456    7.7513   18.5922 H       1  UNL1        0.0000
     12 H           9.5363    6.4702   18.4588 H       1  UNL1        0.0000
     13 C           5.8846    6.0209   20.0761 C.3     1  UNL1        0.0000
     14 H           5.0757    5.2964   20.1070 H       1  UNL1        0.0000
     15 H           5.4516    6.9846   19.8245 H       1  UNL1        0.0000
     16 H           6.2896    6.0987   21.0804 H       1  UNL1        0.0000
@<TRIPOS>BOND
     1     2     1    1
     2     1     3    1
     3     1     4    1
     4    12     9    1
     5    11     9    1
     6     4     9    1
     7     4     5    1
     8     4    13    1
     9     9    10    1
    10     6     5    1
    11     8     5    1
    12     5     7    1
    13    15    13    1
    14    13    14    1
    15    13    16    1
