@<TRIPOS>MOLECULE
1
 27 27 0 0 0
SMALL
GASTEIGER

@<TRIPOS>ATOM
      1 C           1.4456    6.0662    6.1881 C.3     1  UNL1        0.1869
      2 N           2.4101    6.8742    6.6777 N.pl3   1  UNL1       -0.3052
      3 C           1.9405    7.5667    7.7763 C.2     1  UNL1        0.0220
      4 C           0.6555    7.1690    7.9742 C.2     1  UNL1        0.0220
      5 N           0.3685    6.2495    6.9844 N.pl3   1  UNL1       -0.3052
      6 C           3.7027    7.0883    6.0709 C.3     1  UNL1        0.0113
      7 H           4.0201    6.1376    5.6357 H       1  UNL1        0.0461
      8 H           4.4025    7.4092    6.8434 H       1  UNL1        0.0461
      9 C           3.5961    8.1191    4.9516 C.3     1  UNL1       -0.0493
     10 H           4.5716    8.2785    4.5050 H       1  UNL1        0.0245
     11 H           3.2158    9.0678    5.3222 H       1  UNL1        0.0245
     12 H           2.9212    7.7246    4.1961 H       1  UNL1        0.0245
     13 C          -0.9399    5.6721    6.7792 C.3     1  UNL1        0.0113
     14 H          -1.3840    5.4599    7.7560 H       1  UNL1        0.0461
     15 H          -0.8347    4.7265    6.2473 H       1  UNL1        0.0461
     16 C          -1.8281    6.6076    5.9645 C.3     1  UNL1       -0.0493
     17 H          -2.8123    6.1639    5.8424 H       1  UNL1        0.0245
     18 H          -1.3887    6.7524    4.9798 H       1  UNL1        0.0245
     19 H          -1.9378    7.5759    6.4489 H       1  UNL1        0.0245
     20 C           2.7760    8.5343    8.5359 C.3     1  UNL1       -0.0251
     21 H           3.1586    9.3127    7.8790 H       1  UNL1        0.0290
     22 H           3.6236    8.0334    9.0030 H       1  UNL1        0.0290
     23 H           2.1844    9.0038    9.3160 H       1  UNL1        0.0290
     24 C          -0.3163    7.5437    9.0350 C.3     1  UNL1       -0.0251
     25 H          -0.6310    6.6641    9.5965 H       1  UNL1        0.0290
     26 H          -1.2044    8.0093    8.6114 H       1  UNL1        0.0290
     27 H           0.1421    8.2447    9.7261 H       1  UNL1        0.0290
@<TRIPOS>BOND
     1    12     9    1
     2    10     9    1
     3     9    11    1
     4     9     6    1
     5    18    16    1
     6     7     6    1
     7    17    16    1
     8    16    19    1
     9    16    13    1
    10     6     2    1
    11     6     8    1
    12     1     2    1
    13     1     5    1
    14    15    13    1
    15     2     3    1
    16    13     5    1
    17    13    14    1
    18     5     4    1
    19     3     4    2
    20     3    20    1
    21    21    20    1
    22     4    24    1
    23    20    22    1
    24    20    23    1
    25    26    24    1
    26    24    25    1
    27    24    27    1
