@<TRIPOS>MOLECULE
1
 27 27 0 0 0
SMALL
GASTEIGER

@<TRIPOS>ATOM
      1 C           5.6631    0.0807    9.7238 C.3     1  UNL1        0.1869
      2 N           6.8978    0.6467    9.6864 N.pl3   1  UNL1       -0.3052
      3 C           7.8278   -0.2196    9.1447 C.2     1  UNL1        0.0220
      4 C           7.1582   -1.3570    8.8268 C.2     1  UNL1        0.0220
      5 N           5.8420   -1.1569    9.1842 N.pl3   1  UNL1       -0.3052
      6 C           7.2318    2.0253    9.9511 C.3     1  UNL1        0.0113
      7 H           8.2304    2.0652   10.3950 H       1  UNL1        0.0461
      8 H           6.5082    2.4452   10.6452 H       1  UNL1        0.0461
      9 C           7.1691    2.8460    8.6653 C.3     1  UNL1       -0.0493
     10 H           7.5114    3.8586    8.8577 H       1  UNL1        0.0245
     11 H           6.1359    2.8891    8.3326 H       1  UNL1        0.0245
     12 H           7.7805    2.4100    7.8786 H       1  UNL1        0.0245
     13 C           4.8367   -2.1753    9.0083 C.3     1  UNL1        0.0113
     14 H           5.0599   -2.7307    8.0967 H       1  UNL1        0.0461
     15 H           3.8768   -1.6602    8.9031 H       1  UNL1        0.0461
     16 C           4.7853   -3.1148   10.2102 C.3     1  UNL1       -0.0493
     17 H           4.0022   -3.8516   10.0651 H       1  UNL1        0.0245
     18 H           4.5658   -2.5338   11.1007 H       1  UNL1        0.0245
     19 H           5.7304   -3.6345   10.3504 H       1  UNL1        0.0245
     20 C           9.2765    0.1003    9.0342 C.3     1  UNL1       -0.0251
     21 H           9.7063    0.2933   10.0176 H       1  UNL1        0.0290
     22 H           9.4470    0.9766    8.4121 H       1  UNL1        0.0290
     23 H           9.8051   -0.7392    8.5924 H       1  UNL1        0.0290
     24 C           7.6488   -2.6010    8.1754 C.3     1  UNL1       -0.0251
     25 H           7.1935   -2.7235    7.1931 H       1  UNL1        0.0290
     26 H           7.4156   -3.4808    8.7713 H       1  UNL1        0.0290
     27 H           8.7257   -2.5504    8.0449 H       1  UNL1        0.0290
@<TRIPOS>BOND
     1    25    24    1
     2    12     9    1
     3    27    24    1
     4    14    13    1
     5    24    26    1
     6    24     4    1
     7    11     9    1
     8    22    20    1
     9    23    20    1
    10     9    10    1
    11     9     6    1
    12     4     3    2
    13     4     5    1
    14    15    13    1
    15    13     5    1
    16    13    16    1
    17    20     3    1
    18    20    21    1
    19     3     2    1
    20     5     1    1
    21     2     1    1
    22     2     6    1
    23     6     7    1
    24     6     8    1
    25    17    16    1
    26    16    19    1
    27    16    18    1
