@<TRIPOS>MOLECULE
1
 27 27 0 0 0
SMALL
GASTEIGER

@<TRIPOS>ATOM
      1 C           3.8005   -0.3383   12.2890 C.3     1  UNL1        0.1869
      2 N           2.8589   -1.2059   12.7071 N.pl3   1  UNL1       -0.3052
      3 C           2.9747   -1.4266   14.0639 C.2     1  UNL1        0.0220
      4 C           4.0220   -0.6756   14.4982 C.2     1  UNL1        0.0220
      5 N           4.5118   -0.0150   13.3904 N.pl3   1  UNL1       -0.3052
      6 C           1.7634   -1.6884   11.9000 C.3     1  UNL1        0.0113
      7 H           1.4932   -2.6920   12.2362 H       1  UNL1        0.0461
      8 H           2.1082   -1.7109   10.8650 H       1  UNL1        0.0461
      9 C           0.5791   -0.7301   11.9857 C.3     1  UNL1       -0.0493
     10 H          -0.2063   -1.0568   11.3123 H       1  UNL1        0.0245
     11 H           0.9176    0.2580   11.6832 H       1  UNL1        0.0245
     12 H           0.1801   -0.6741   12.9954 H       1  UNL1        0.0245
     13 C           5.6166    0.9107   13.4101 C.3     1  UNL1        0.0113
     14 H           5.6406    1.4047   14.3840 H       1  UNL1        0.0461
     15 H           5.4377    1.6812   12.6563 H       1  UNL1        0.0461
     16 C           6.9424    0.2001   13.1433 C.3     1  UNL1       -0.0493
     17 H           7.7532    0.9233   13.1186 H       1  UNL1        0.0245
     18 H           6.9030   -0.3211   12.1891 H       1  UNL1        0.0245
     19 H           7.1536   -0.5284   13.9236 H       1  UNL1        0.0245
     20 C           2.0885   -2.3600   14.8080 C.3     1  UNL1       -0.0251
     21 H           1.0474   -2.0544   14.7268 H       1  UNL1        0.0290
     22 H           2.3610   -2.3741   15.8591 H       1  UNL1        0.0290
     23 H           2.1785   -3.3729   14.4156 H       1  UNL1        0.0290
     24 C           4.5838   -0.4934   15.8625 C.3     1  UNL1       -0.0251
     25 H           4.4271    0.5290   16.2078 H       1  UNL1        0.0290
     26 H           5.6527   -0.7023   15.8836 H       1  UNL1        0.0290
     27 H           4.0896   -1.1645   16.5587 H       1  UNL1        0.0290
@<TRIPOS>BOND
     1     8     6    1
     2    10     9    1
     3    11     9    1
     4     6     9    1
     5     6     7    1
     6     6     2    1
     7     9    12    1
     8    18    16    1
     9     1     2    1
    10     1     5    1
    11    15    13    1
    12     2     3    1
    13    17    16    1
    14    16    13    1
    15    16    19    1
    16     5    13    1
    17     5     4    1
    18    13    14    1
    19     3     4    2
    20     3    20    1
    21    23    20    1
    22     4    24    1
    23    21    20    1
    24    20    22    1
    25    24    26    1
    26    24    25    1
    27    24    27    1
