@<TRIPOS>MOLECULE
2
 16 15 0 0 0
SMALL
GASTEIGER

@<TRIPOS>ATOM
      1 SI          8.0545    9.7357   10.6416 Si      1  UNL1        0.0000
      2 C           6.4614    8.7808   10.8466 C.3     1  UNL1        0.0000
      3 H           6.3760    8.1890    9.9330 H       1  UNL1        0.0000
      4 H           5.6071    9.4832   10.8491 H       1  UNL1        0.0000
      5 C           8.4691   11.0601   11.9561 C.3     1  UNL1        0.0000
      6 H           7.7438   11.8666   11.9525 H       1  UNL1        0.0000
      7 H           9.4499   11.4986   11.7877 H       1  UNL1        0.0000
      8 H           8.4612   10.6362   12.9527 H       1  UNL1        0.0000
      9 C           8.0566   10.6941    8.9633 C.3     1  UNL1        0.0000
     10 H           7.2118   11.3744    8.8952 H       1  UNL1        0.0000
     11 H           7.9852   10.0031    8.1279 H       1  UNL1        0.0000
     12 H           8.9604   11.2823    8.8249 H       1  UNL1        0.0000
     13 C           9.5669    8.5647   10.5433 C.3     1  UNL1        0.0000
     14 H          10.4017    9.0213   10.0177 H       1  UNL1        0.0000
     15 H           9.3062    7.6501   10.0209 H       1  UNL1        0.0000
     16 H           9.9143    8.2939   11.5353 H       1  UNL1        0.0000
@<TRIPOS>BOND
     1    11     9    1
     2    12     9    1
     3    10     9    1
     4     9     1    1
     5     3     2    1
     6    14    13    1
     7    15    13    1
     8    13     1    1
     9    13    16    1
    10     1     2    1
    11     1     5    1
    12     2     4    1
    13     7     5    1
    14     6     5    1
    15     5     8    1
