@<TRIPOS>MOLECULE
2
 16 15 0 0 0
SMALL
GASTEIGER

@<TRIPOS>ATOM
      1 SI         12.6443    9.2498   17.7956 Si      1  UNL1        0.0000
      2 C          11.7485    7.7786   17.0305 C.3     1  UNL1        0.0000
      3 H          12.0494    6.9024   17.6064 H       1  UNL1        0.0000
      4 H          12.1543    7.6566   16.0202 H       1  UNL1        0.0000
      5 C          11.8598   10.9741   17.5390 C.3     1  UNL1        0.0000
      6 H          11.4326   11.0617   16.5462 H       1  UNL1        0.0000
      7 H          12.6142   11.7493   17.6395 H       1  UNL1        0.0000
      8 H          11.0803   11.1916   18.2612 H       1  UNL1        0.0000
      9 C          12.9424    8.9740   19.6647 C.3     1  UNL1        0.0000
     10 H          12.0245    8.7491   20.1941 H       1  UNL1        0.0000
     11 H          13.3881    9.8490   20.1290 H       1  UNL1        0.0000
     12 H          13.6157    8.1380   19.8283 H       1  UNL1        0.0000
     13 C          14.3915    9.4022   17.0085 C.3     1  UNL1        0.0000
     14 H          14.8823    8.4368   16.9236 H       1  UNL1        0.0000
     15 H          15.0371   10.0427   17.6027 H       1  UNL1        0.0000
     16 H          14.3331    9.8327   16.0135 H       1  UNL1        0.0000
@<TRIPOS>BOND
     1    16    13    1
     2     4     2    1
     3     6     5    1
     4    14    13    1
     5    13    15    1
     6    13     1    1
     7     2     3    1
     8     2     1    1
     9     5     7    1
    10     5     1    1
    11     5     8    1
    12     1     9    1
    13     9    12    1
    14     9    11    1
    15     9    10    1
