@<TRIPOS>MOLECULE
4
 31 31 0 0 0
SMALL
GASTEIGER

@<TRIPOS>ATOM
      1 SI          9.4723   13.9550    5.0293 Si      1  UNL1        0.0000
      2 SI          7.3549   14.7048    5.6923 Si      1  UNL1        0.0000
      3 BR          2.9071    9.8487    6.0683 Br      1  UNL1        0.0000
      4 C           9.6931   11.6501    3.0388 C.1     1  UNL1        0.0000
      5 C           9.5094   12.5451    3.8466 C.1     1  UNL1        0.0000
      6 C          10.4637   13.4354    6.5835 C.3     1  UNL1        0.0000
      7 H          10.5813   14.2647    7.2753 H       1  UNL1        0.0000
      8 H          11.4564   13.0830    6.3207 H       1  UNL1        0.0000
      9 H           9.9617   12.6332    7.1174 H       1  UNL1        0.0000
     10 C          10.4065   15.4081    4.2038 C.3     1  UNL1        0.0000
     11 H          10.5258   16.2462    4.8850 H       1  UNL1        0.0000
     12 H           9.8694   15.7689    3.3313 H       1  UNL1        0.0000
     13 H          11.3954   15.1054    3.8729 H       1  UNL1        0.0000
     14 C           7.3650   15.5399    7.4184 C.3     1  UNL1        0.0000
     15 H           7.6960   14.8470    8.1868 H       1  UNL1        0.0000
     16 H           6.3796   15.8974    7.7054 H       1  UNL1        0.0000
     17 H           8.0377   16.3929    7.4347 H       1  UNL1        0.0000
     18 C           6.6162   15.9895    4.4768 C.3     1  UNL1        0.0000
     19 H           6.5659   15.5971    3.4654 H       1  UNL1        0.0000
     20 H           7.2291   16.8857    4.4463 H       1  UNL1        0.0000
     21 H           5.6119   16.2925    4.7611 H       1  UNL1        0.0000
     22 C           6.0768   13.2936    5.8294 C.ar    1  UNL1        0.0000
     23 C           6.4297   11.9740    5.5717 C.ar    1  UNL1        0.0000
     24 H           7.4421   11.7447    5.2751 H       1  UNL1        0.0000
     25 C           5.5066   10.9483    5.6597 C.ar    1  UNL1        0.0000
     26 H           5.7919    9.9280    5.4568 H       1  UNL1        0.0000
     27 C           4.2020   11.2508    5.9997 C.ar    1  UNL1        0.0000
     28 C           3.8131   12.5492    6.2714 C.ar    1  UNL1        0.0000
     29 H           2.7902   12.7691    6.5397 H       1  UNL1        0.0000
     30 C           4.7584   13.5548    6.1880 C.ar    1  UNL1        0.0000
     31 H           4.4539   14.5694    6.4007 H       1  UNL1        0.0000
@<TRIPOS>BOND
     1     4     5    3
     2    12    10    1
     3    19    18    1
     4     5     1    1
     5    13    10    1
     6    10    11    1
     7    10     1    1
     8    20    18    1
     9    18    21    1
    10    18     2    1
    11     1     2    1
    12     1     6    1
    13    24    23    1
    14    26    25    1
    15    23    25   ar
    16    23    22   ar
    17    25    27   ar
    18     2    22    1
    19     2    14    1
    20    22    30   ar
    21    27     3    1
    22    27    28   ar
    23    30    28   ar
    24    30    31    1
    25    28    29    1
    26     8     6    1
    27     6     9    1
    28     6     7    1
    29    14    17    1
    30    14    16    1
    31    14    15    1
