@<TRIPOS>MOLECULE
4
 39 39 0 0 0
SMALL
GASTEIGER

@<TRIPOS>ATOM
      1 SI          0.8071    6.8446    9.4777 Si      1  UNL1        0.0000
      2 SI          2.1304    8.2072   10.8498 Si      1  UNL1        0.0000
      3 N          -0.7664   13.5845   11.2138 N.pl3   1  UNL1        0.0000
      4 C           1.8862    4.0224    9.0092 C.1     1  UNL1        0.0000
      5 C           1.4876    5.1657    9.1461 C.1     1  UNL1        0.0000
      6 C           0.5203    7.7378    7.8053 C.3     1  UNL1        0.0000
      7 H           0.1036    8.7287    7.9657 H       1  UNL1        0.0000
      8 H          -0.1626    7.1938    7.1582 H       1  UNL1        0.0000
      9 H           1.4557    7.8597    7.2668 H       1  UNL1        0.0000
     10 C          -0.9119    6.5847   10.2843 C.3     1  UNL1        0.0000
     11 H          -1.3507    7.5320   10.5854 H       1  UNL1        0.0000
     12 H          -0.8296    5.9598   11.1692 H       1  UNL1        0.0000
     13 H          -1.6093    6.0992    9.6071 H       1  UNL1        0.0000
     14 C           3.8860    8.4794   10.1386 C.3     1  UNL1        0.0000
     15 H           4.4766    7.5704   10.1913 H       1  UNL1        0.0000
     16 H           4.4241    9.2544   10.6774 H       1  UNL1        0.0000
     17 H           3.8427    8.7743    9.0945 H       1  UNL1        0.0000
     18 C           2.3436    7.4811   12.6072 C.3     1  UNL1        0.0000
     19 H           2.9261    6.5657   12.5825 H       1  UNL1        0.0000
     20 H           1.3795    7.2420   13.0457 H       1  UNL1        0.0000
     21 H           2.8454    8.1760   13.2748 H       1  UNL1        0.0000
     22 C           1.2999    9.9026   11.0179 C.ar    1  UNL1        0.0000
     23 C           1.5717   10.9450   10.1370 C.ar    1  UNL1        0.0000
     24 H           2.3259   10.8082    9.3748 H       1  UNL1        0.0000
     25 C           0.9181   12.1571   10.2059 C.ar    1  UNL1        0.0000
     26 H           1.1847   12.9240    9.4961 H       1  UNL1        0.0000
     27 C          -0.0709   12.3917   11.1699 C.ar    1  UNL1        0.0000
     28 C          -0.3502   11.3459   12.0589 C.ar    1  UNL1        0.0000
     29 H          -1.0942   11.4652   12.8304 H       1  UNL1        0.0000
     30 C           0.3155   10.1415   11.9721 C.ar    1  UNL1        0.0000
     31 H           0.0651    9.3623   12.6786 H       1  UNL1        0.0000
     32 C          -0.2713   14.7150   10.4660 C.3     1  UNL1        0.0000
     33 H          -0.9186   15.5723   10.6382 H       1  UNL1        0.0000
     34 H          -0.2867   14.4968    9.3964 H       1  UNL1        0.0000
     35 H           0.7516   14.9911   10.7521 H       1  UNL1        0.0000
     36 C          -1.6120   13.8672   12.3480 C.3     1  UNL1        0.0000
     37 H          -2.0858   14.8371   12.2106 H       1  UNL1        0.0000
     38 H          -1.0552   13.8847   13.2940 H       1  UNL1        0.0000
     39 H          -2.4034   13.1191   12.4230 H       1  UNL1        0.0000
@<TRIPOS>BOND
     1     8     6    1
     2     9     6    1
     3     6     7    1
     4     6     1    1
     5     4     5    3
     6    17    14    1
     7     5     1    1
     8    24    23    1
     9    34    32    1
    10     1    10    1
    11     1     2    1
    12    26    25    1
    13    13    10    1
    14    23    25   ar
    15    23    22   ar
    16    14    15    1
    17    14    16    1
    18    14     2    1
    19    25    27   ar
    20    10    11    1
    21    10    12    1
    22    32    33    1
    23    32    35    1
    24    32     3    1
    25     2    22    1
    26     2    18    1
    27    22    30   ar
    28    27     3    1
    29    27    28   ar
    30     3    36    1
    31    30    28   ar
    32    30    31    1
    33    28    29    1
    34    37    36    1
    35    36    39    1
    36    36    38    1
    37    19    18    1
    38    18    20    1
    39    18    21    1
