@<TRIPOS>MOLECULE
3
 31 31 0 0 0
SMALL
GASTEIGER

@<TRIPOS>ATOM
      1 SI          6.4437   12.2025    4.1761 Si      1  UNL1        0.0000
      2 SI          4.9210   13.6735    3.1658 Si      1  UNL1        0.0000
      3 C           5.6549    9.2568    3.9434 C.1     1  UNL1        0.0000
      4 C           5.9797   10.4291    4.0171 C.1     1  UNL1        0.0000
      5 C           5.5643   15.4561    3.3445 C.ar    1  UNL1        0.0000
      6 C           6.5780   15.9283    2.5153 C.ar    1  UNL1        0.0000
      7 H           6.9632   15.2879    1.7342 H       1  UNL1        0.0000
      8 C           7.1018   17.1987    2.6670 C.ar    1  UNL1        0.0000
      9 H           7.8861   17.5438    2.0072 H       1  UNL1        0.0000
     10 C           6.6228   18.0297    3.6659 C.ar    1  UNL1        0.0000
     11 H           7.0288   19.0240    3.7876 H       1  UNL1        0.0000
     12 C           5.6213   17.5771    4.5079 C.ar    1  UNL1        0.0000
     13 H           5.2436   18.2198    5.2914 H       1  UNL1        0.0000
     14 C           5.1044   16.3042    4.3471 C.ar    1  UNL1        0.0000
     15 H           4.3241   15.9620    5.0118 H       1  UNL1        0.0000
     16 C           6.5851   12.6097    6.0419 C.3     1  UNL1        0.0000
     17 H           6.9255   13.6300    6.1971 H       1  UNL1        0.0000
     18 H           7.2807   11.9450    6.5462 H       1  UNL1        0.0000
     19 H           5.6225   12.5057    6.5337 H       1  UNL1        0.0000
     20 C           8.1817   12.4409    3.4048 C.3     1  UNL1        0.0000
     21 H           8.5218   13.4667    3.5185 H       1  UNL1        0.0000
     22 H           8.1749   12.2133    2.3424 H       1  UNL1        0.0000
     23 H           8.9201   11.7955    3.8725 H       1  UNL1        0.0000
     24 C           3.1759   13.5958    3.9441 C.3     1  UNL1        0.0000
     25 H           3.2233   13.6153    5.0288 H       1  UNL1        0.0000
     26 H           2.6698   12.6788    3.6597 H       1  UNL1        0.0000
     27 H           2.5528   14.4270    3.6254 H       1  UNL1        0.0000
     28 C           4.6857   13.3468    1.2956 C.3     1  UNL1        0.0000
     29 H           5.6176   13.4763    0.7545 H       1  UNL1        0.0000
     30 H           3.9579   14.0232    0.8559 H       1  UNL1        0.0000
     31 H           4.3451   12.3313    1.1172 H       1  UNL1        0.0000
@<TRIPOS>BOND
     1    29    28    1
     2    30    28    1
     3    31    28    1
     4    28     2    1
     5     7     6    1
     6     9     8    1
     7    22    20    1
     8     6     8   ar
     9     6     5   ar
    10     8    10   ar
    11     2     5    1
    12     2    24    1
    13     2     1    1
    14     5    14   ar
    15    20    21    1
    16    20    23    1
    17    20     1    1
    18    27    24    1
    19    26    24    1
    20    10    11    1
    21    10    12   ar
    22     3     4    3
    23    24    25    1
    24     4     1    1
    25     1    16    1
    26    14    12   ar
    27    14    15    1
    28    12    13    1
    29    16    17    1
    30    16    19    1
    31    16    18    1
