@<TRIPOS>MOLECULE
2
 19 18 0 0 0
SMALL
GASTEIGER

@<TRIPOS>ATOM
      1 SI         10.0047   -1.8189    7.1884 Si      1  UNL1        0.0000
      2 C           2.1454    0.0010    5.7298 C.1     1  UNL1        0.0000
      3 C           3.3163   -0.2730    5.9360 C.1     1  UNL1        0.0000
      4 C           4.6060   -0.5945    6.1625 C.1     1  UNL1        0.0000
      5 C           5.7799   -0.8515    6.3792 C.1     1  UNL1        0.0000
      6 C           7.0697   -1.1473    6.6205 C.1     1  UNL1        0.0000
      7 C           8.2397   -1.4072    6.8420 C.1     1  UNL1        0.0000
      8 C          10.1000   -3.5468    7.9899 C.3     1  UNL1        0.0000
      9 C          10.9860   -1.8024    5.5523 C.3     1  UNL1        0.0000
     10 C          10.7142   -0.5082    8.3816 C.3     1  UNL1        0.0000
     11 H           9.5328   -3.5825    8.9153 H       1  UNL1        0.0000
     12 H           9.6952   -4.3075    7.3292 H       1  UNL1        0.0000
     13 H          11.1253   -3.8226    8.2210 H       1  UNL1        0.0000
     14 H          12.0378   -2.0190    5.7177 H       1  UNL1        0.0000
     15 H          10.6024   -2.5443    4.8583 H       1  UNL1        0.0000
     16 H          10.9222   -0.8344    5.0642 H       1  UNL1        0.0000
     17 H          11.7518   -0.7154    8.6283 H       1  UNL1        0.0000
     18 H          10.6720    0.4853    7.9449 H       1  UNL1        0.0000
     19 H          10.1542   -0.4809    9.3117 H       1  UNL1        0.0000
@<TRIPOS>BOND
     1    15     9    1
     2    16     9    1
     3     9    14    1
     4     9     1    1
     5     2     3    3
     6     3     4    1
     7     4     5    3
     8     5     6    1
     9     6     7    3
    10     7     1    1
    11     1     8    1
    12     1    10    1
    13    12     8    1
    14    18    10    1
    15     8    13    1
    16     8    11    1
    17    10    17    1
    18    10    19    1
