@<TRIPOS>MOLECULE
2
 16 15 0 0 0
SMALL
GASTEIGER

@<TRIPOS>ATOM
      1 SI        -11.3487    1.3006    6.8198 Si      1  UNL1        0.0000
      2 C          -9.8004    2.3707    6.6158 C.3     1  UNL1        0.0000
      3 C         -11.6765    0.8219    8.6562 C.3     1  UNL1        0.0000
      4 C         -12.9306    2.2700    6.3171 C.3     1  UNL1        0.0000
      5 C         -11.0335   -0.3849    5.9487 C.3     1  UNL1        0.0000
      6 H          -9.8800    3.2685    7.2378 H       1  UNL1        0.0000
      7 H          -8.9533    1.8049    7.0231 H       1  UNL1        0.0000
      8 H         -12.5559    0.1951    8.7499 H       1  UNL1        0.0000
      9 H         -11.8359    1.6985    9.2745 H       1  UNL1        0.0000
     10 H         -10.8418    0.2745    9.0802 H       1  UNL1        0.0000
     11 H         -13.7387    1.5953    6.0523 H       1  UNL1        0.0000
     12 H         -12.7168    2.8887    5.4419 H       1  UNL1        0.0000
     13 H         -13.2888    2.9069    7.1222 H       1  UNL1        0.0000
     14 H         -11.9538   -0.8066    5.5578 H       1  UNL1        0.0000
     15 H         -10.5949   -1.1200    6.6190 H       1  UNL1        0.0000
     16 H         -10.3614   -0.2297    5.0996 H       1  UNL1        0.0000
@<TRIPOS>BOND
     1    16     5    1
     2    12     4    1
     3    14     5    1
     4     5    15    1
     5     5     1    1
     6    11     4    1
     7     4     1    1
     8     4    13    1
     9     2     1    1
    10     2     7    1
    11     2     6    1
    12     1     3    1
    13     3     8    1
    14     3    10    1
    15     3     9    1
