@<TRIPOS>MOLECULE
2
 16 15 0 0 0
SMALL
GASTEIGER

@<TRIPOS>ATOM
      1 SI         17.9439   10.5215    9.3577 Si      1  UNL1        0.0000
      2 C          16.2166   10.4803   10.0813 C.3     1  UNL1        0.0000
      3 H          15.9171    9.4340   10.2184 H       1  UNL1        0.0000
      4 H          15.5046   10.9068    9.3653 H       1  UNL1        0.0000
      5 C          19.2867   10.7482   10.7091 C.3     1  UNL1        0.0000
      6 H          18.9635   11.4934   11.4346 H       1  UNL1        0.0000
      7 H          20.2369   11.0688   10.2920 H       1  UNL1        0.0000
      8 H          19.4688    9.8199   11.2417 H       1  UNL1        0.0000
      9 C          18.1701   11.9364    8.0801 C.3     1  UNL1        0.0000
     10 H          17.5396   11.7787    7.2104 H       1  UNL1        0.0000
     11 H          19.1956   11.9916    7.7280 H       1  UNL1        0.0000
     12 H          17.9130   12.9030    8.5026 H       1  UNL1        0.0000
     13 C          18.4355    8.9213    8.4041 C.3     1  UNL1        0.0000
     14 H          18.3181    8.0373    9.0252 H       1  UNL1        0.0000
     15 H          19.4682    8.9489    8.0692 H       1  UNL1        0.0000
     16 H          17.8116    8.7822    7.5267 H       1  UNL1        0.0000
@<TRIPOS>BOND
     1    10     9    1
     2    16    13    1
     3    11     9    1
     4    15    13    1
     5     9    12    1
     6     9     1    1
     7    13    14    1
     8    13     1    1
     9     1     2    1
    10     1     5    1
    11     4     2    1
    12     2     3    1
    13     7     5    1
    14     5     8    1
    15     5     6    1
