@<TRIPOS>MOLECULE
3
 28 27 0 0 0
SMALL
GASTEIGER

@<TRIPOS>ATOM
      1 SI          3.0059    7.4983    3.9208 Si      1  UNL1        0.0000
      2 SI         -0.1752    7.2199    2.9947 Si      1  UNL1        0.0000
      3 C           1.7572    5.2241    2.9409 C.3     1  UNL1        0.0000
      4 C           1.5558    6.4598    3.2223 C.3     1  UNL1        0.0000
      5 C           2.4214    8.3329    5.5432 C.3     1  UNL1        0.0000
      6 H           3.2221    8.9303    5.9676 H       1  UNL1        0.0000
      7 H           2.1285    7.6034    6.2917 H       1  UNL1        0.0000
      8 H           1.5760    8.9924    5.3791 H       1  UNL1        0.0000
      9 C           3.5181    8.8585    2.6812 C.3     1  UNL1        0.0000
     10 H           4.4742    9.2859    2.9678 H       1  UNL1        0.0000
     11 H           2.7988    9.6687    2.6427 H       1  UNL1        0.0000
     12 H           3.6272    8.4612    1.6778 H       1  UNL1        0.0000
     13 C           4.4768    6.3569    4.2965 C.3     1  UNL1        0.0000
     14 H           5.4184    6.8965    4.2913 H       1  UNL1        0.0000
     15 H           4.5297    5.5720    3.5494 H       1  UNL1        0.0000
     16 H           4.3712    5.8724    5.2605 H       1  UNL1        0.0000
     17 C          -1.1333    6.3623    1.5862 C.3     1  UNL1        0.0000
     18 H          -1.9710    6.9656    1.2483 H       1  UNL1        0.0000
     19 H          -1.5293    5.4055    1.9089 H       1  UNL1        0.0000
     20 H          -0.4862    6.1890    0.7323 H       1  UNL1        0.0000
     21 C          -1.1376    7.0048    4.6341 C.3     1  UNL1        0.0000
     22 H          -2.1551    7.3742    4.5455 H       1  UNL1        0.0000
     23 H          -0.6619    7.5444    5.4463 H       1  UNL1        0.0000
     24 H          -1.1878    5.9601    4.9244 H       1  UNL1        0.0000
     25 C          -0.0611    9.0721    2.5582 C.3     1  UNL1        0.0000
     26 H          -1.0534    9.4848    2.4048 H       1  UNL1        0.0000
     27 H           0.5047    9.2311    1.6468 H       1  UNL1        0.0000
     28 H           0.4104    9.6451    3.3483 H       1  UNL1        0.0000
@<TRIPOS>BOND
     1    20    17    1
     2    18    17    1
     3    17    19    1
     4    17     2    1
     5    27    25    1
     6    12     9    1
     7    26    25    1
     8    25     2    1
     9    25    28    1
    10    11     9    1
    11     9    10    1
    12     9     1    1
    13     3     4    1
    14     2     4    1
    15     2    21    1
    16     4     1    1
    17    15    13    1
    18     1    13    1
    19     1     5    1
    20    14    13    1
    21    13    16    1
    22    22    21    1
    23    21    24    1
    24    21    23    1
    25     8     5    1
    26     5     6    1
    27     5     7    1
