@<TRIPOS>MOLECULE
3
 28 27 0 0 0
SMALL
GASTEIGER

@<TRIPOS>ATOM
      1 SI          5.5607    2.2614    5.1189 Si      1  UNL1        0.0000
      2 SI          2.7751    3.3217    6.6305 Si      1  UNL1        0.0000
      3 C           3.1772    3.2399    3.9422 C.3     1  UNL1        0.0000
      4 C           3.7812    2.9544    5.0411 C.3     1  UNL1        0.0000
      5 C           5.9621    1.1429    3.6304 C.3     1  UNL1        0.0000
      6 H           6.1124    1.7231    2.7275 H       1  UNL1        0.0000
      7 H           5.1586    0.4384    3.4404 H       1  UNL1        0.0000
      8 H           6.8648    0.5664    3.8106 H       1  UNL1        0.0000
      9 C           6.7958    3.7117    5.2156 C.3     1  UNL1        0.0000
     10 H           6.7573    4.3171    4.3166 H       1  UNL1        0.0000
     11 H           7.8122    3.3456    5.3240 H       1  UNL1        0.0000
     12 H           6.5878    4.3619    6.0590 H       1  UNL1        0.0000
     13 C           5.7515    1.1699    6.6790 C.3     1  UNL1        0.0000
     14 H           5.0907    0.3097    6.6486 H       1  UNL1        0.0000
     15 H           5.5453    1.7132    7.5942 H       1  UNL1        0.0000
     16 H           6.7679    0.7943    6.7470 H       1  UNL1        0.0000
     17 C           2.2365    1.6612    7.4156 C.3     1  UNL1        0.0000
     18 H           1.4823    1.8224    8.1803 H       1  UNL1        0.0000
     19 H           3.0687    1.1468    7.8825 H       1  UNL1        0.0000
     20 H           1.8134    0.9911    6.6738 H       1  UNL1        0.0000
     21 C           1.2167    4.3287    6.2030 C.3     1  UNL1        0.0000
     22 H           0.4947    4.3383    7.0143 H       1  UNL1        0.0000
     23 H           0.7329    3.9107    5.3227 H       1  UNL1        0.0000
     24 H           1.4680    5.3551    5.9588 H       1  UNL1        0.0000
     25 C           3.8301    4.3220    7.8676 C.3     1  UNL1        0.0000
     26 H           3.3240    4.3864    8.8254 H       1  UNL1        0.0000
     27 H           4.0023    5.3356    7.5208 H       1  UNL1        0.0000
     28 H           4.7974    3.8641    8.0388 H       1  UNL1        0.0000
@<TRIPOS>BOND
     1     6     5    1
     2     7     5    1
     3     5     8    1
     4     5     1    1
     5     3     4    1
     6    10     9    1
     7     4     1    1
     8     4     2    1
     9     1     9    1
    10     1    13    1
    11     9    11    1
    12     9    12    1
    13    23    21    1
    14    24    21    1
    15    21     2    1
    16    21    22    1
    17     2    17    1
    18     2    25    1
    19    14    13    1
    20    20    17    1
    21    13    16    1
    22    13    15    1
    23    17    19    1
    24    17    18    1
    25    27    25    1
    26    25    28    1
    27    25    26    1
