@<TRIPOS>MOLECULE
2
 21 20 0 0 0
SMALL
GASTEIGER

@<TRIPOS>ATOM
      1 SI          8.0575    6.7505   15.8379 Si      1  UNL1        0.0000
      2 C           5.0501    5.9462   14.7557 C.3     1  UNL1        0.0000
      3 C           5.1739    6.5876   15.9696 C.2     1  UNL1        0.0000
      4 H           4.2234    6.7849   16.4743 H       1  UNL1        0.0000
      5 C           6.3248    6.9732   16.5824 C.2     1  UNL1        0.0000
      6 C           6.2568    7.6435   17.9198 C.3     1  UNL1        0.0000
      7 H           6.7549    7.0312   18.6711 H       1  UNL1        0.0000
      8 H           5.2282    7.8108   18.2340 H       1  UNL1        0.0000
      9 H           6.7744    8.6016   17.8895 H       1  UNL1        0.0000
     10 C           8.2009    5.4996   14.4099 C.3     1  UNL1        0.0000
     11 H           8.2998    4.4837   14.7796 H       1  UNL1        0.0000
     12 H           9.0748    5.7139   13.8013 H       1  UNL1        0.0000
     13 H           7.3250    5.5319   13.7659 H       1  UNL1        0.0000
     14 C           9.2229    6.1745   17.2418 C.3     1  UNL1        0.0000
     15 H           9.3199    6.9300   18.0148 H       1  UNL1        0.0000
     16 H          10.2184    5.9742   16.8580 H       1  UNL1        0.0000
     17 H           8.8659    5.2636   17.7134 H       1  UNL1        0.0000
     18 C           8.6530    8.4652   15.2286 C.3     1  UNL1        0.0000
     19 H           8.0221    8.8488   14.4332 H       1  UNL1        0.0000
     20 H           9.6680    8.4096   14.8466 H       1  UNL1        0.0000
     21 H           8.6481    9.1957   16.0320 H       1  UNL1        0.0000
@<TRIPOS>BOND
     1    13    10    1
     2    12    10    1
     3    10    11    1
     4    10     1    1
     5    19    18    1
     6     2     3    1
     7    20    18    1
     8    18     1    1
     9    18    21    1
    10     1     5    1
    11     1    14    1
    12     3     4    1
    13     3     5    2
    14     5     6    1
    15    16    14    1
    16    14    17    1
    17    14    15    1
    18     9     6    1
    19     6     8    1
    20     6     7    1
