@<TRIPOS>MOLECULE
2
 24 23 0 0 0
SMALL
GASTEIGER

@<TRIPOS>ATOM
      1 SI         10.1125   11.4061    6.7233 Si      1  UNL1        0.0000
      2 C           9.6960    9.0775    4.4734 C.3     1  UNL1        0.0000
      3 C          10.9863    9.2827    4.9366 C.2     1  UNL1        0.0000
      4 C          11.3202   10.2096    5.8844 C.2     1  UNL1        0.0000
      5 C          12.7598   10.3344    6.2911 C.3     1  UNL1        0.0000
      6 H          12.8970   11.1203    7.0271 H       1  UNL1        0.0000
      7 H          13.3861   10.5594    5.4269 H       1  UNL1        0.0000
      8 H          13.1208    9.3977    6.7178 H       1  UNL1        0.0000
      9 C          12.0428    8.3969    4.3096 C.3     1  UNL1        0.0000
     10 H          12.5422    7.8060    5.0758 H       1  UNL1        0.0000
     11 H          12.7904    9.0049    3.8021 H       1  UNL1        0.0000
     12 H          11.5893    7.7237    3.5864 H       1  UNL1        0.0000
     13 C           8.2478   11.1837    6.4171 C.3     1  UNL1        0.0000
     14 H           8.0538   10.7613    5.4355 H       1  UNL1        0.0000
     15 H           7.7359   12.1397    6.4798 H       1  UNL1        0.0000
     16 H           7.8025   10.5239    7.1547 H       1  UNL1        0.0000
     17 C          10.5999   13.1686    6.1530 C.3     1  UNL1        0.0000
     18 H          11.6630   13.3498    6.2761 H       1  UNL1        0.0000
     19 H          10.0720   13.9228    6.7289 H       1  UNL1        0.0000
     20 H          10.3604   13.3269    5.1059 H       1  UNL1        0.0000
     21 C          10.3895   11.2655    8.6131 C.3     1  UNL1        0.0000
     22 H          10.2408   10.2481    8.9625 H       1  UNL1        0.0000
     23 H           9.6935   11.9018    9.1512 H       1  UNL1        0.0000
     24 H          11.3913   11.5667    8.9009 H       1  UNL1        0.0000
@<TRIPOS>BOND
     1    12     9    1
     2    11     9    1
     3     9     3    1
     4     9    10    1
     5     2     3    1
     6     3     4    2
     7    20    17    1
     8     7     5    1
     9    14    13    1
    10     4     5    1
    11     4     1    1
    12    17    18    1
    13    17     1    1
    14    17    19    1
    15     5     8    1
    16     5     6    1
    17    13    15    1
    18    13     1    1
    19    13    16    1
    20     1    21    1
    21    21    24    1
    22    21    22    1
    23    21    23    1
