@<TRIPOS>MOLECULE
2
 15 14 0 0 0
SMALL
GASTEIGER

@<TRIPOS>ATOM
      1 N           4.1684   -5.3840   15.2201 N.3     1  UNL1       -0.2219
      2 C           3.5339   -4.8516   14.4097 C.3     1  UNL1        0.1072
      3 C           4.9205   -6.1252   16.1580 C.3     1  UNL1        0.0290
      4 C           4.7034   -7.6080   15.8445 C.3     1  UNL1       -0.0458
      5 C           6.3905   -5.7325   15.9948 C.3     1  UNL1       -0.0458
      6 C           4.4154   -5.7760   17.5594 C.3     1  UNL1       -0.0458
      7 H           6.9840   -6.2467   16.7451 H       1  UNL1        0.0248
      8 H           3.3598   -6.0138   17.6624 H       1  UNL1        0.0248
      9 H           4.9711   -6.3502   18.2950 H       1  UNL1        0.0248
     10 H           6.5198   -4.6611   16.1252 H       1  UNL1        0.0248
     11 H           4.9966   -7.8304   14.8208 H       1  UNL1        0.0248
     12 H           4.5607   -4.7187   17.7670 H       1  UNL1        0.0248
     13 H           6.7592   -6.0106   15.0114 H       1  UNL1        0.0248
     14 H           5.3057   -8.2110   16.5177 H       1  UNL1        0.0248
     15 H           3.6592   -7.8808   15.9782 H       1  UNL1        0.0248
@<TRIPOS>BOND
     1     2     1    1
     2    11     4    1
     3    13     5    1
     4     1     3    1
     5     4    15    1
     6     4     3    1
     7     4    14    1
     8     5    10    1
     9     5     3    1
    10     5     7    1
    11     3     6    1
    12     6     8    1
    13     6    12    1
    14     6     9    1
