@<TRIPOS>MOLECULE
2
 16 15 0 0 0
SMALL
GASTEIGER

@<TRIPOS>ATOM
      1 SI          1.4119   11.8816   11.4587 Si      1  UNL1        0.0000
      2 C           1.2933   10.3537   12.5513 C.3     1  UNL1        0.0000
      3 H           1.1831   10.7281   13.5834 H       1  UNL1        0.0000
      4 H           2.2804    9.8602   12.5351 H       1  UNL1        0.0000
      5 C           2.8110   13.0931   11.9862 C.3     1  UNL1        0.0000
      6 H           2.6527   13.4553   12.9978 H       1  UNL1        0.0000
      7 H           2.8639   13.9598   11.3337 H       1  UNL1        0.0000
      8 H           3.7830   12.6086   11.9636 H       1  UNL1        0.0000
      9 C          -0.2139   12.8956   11.5346 C.3     1  UNL1        0.0000
     10 H          -1.0365   12.3648   11.0650 H       1  UNL1        0.0000
     11 H          -0.1102   13.8500   11.0273 H       1  UNL1        0.0000
     12 H          -0.4958   13.1008   12.5629 H       1  UNL1        0.0000
     13 C           1.7521   11.4684    9.6196 C.3     1  UNL1        0.0000
     14 H           2.7261   11.0067    9.4910 H       1  UNL1        0.0000
     15 H           1.7328   12.3630    9.0041 H       1  UNL1        0.0000
     16 H           1.0142   10.7784    9.2230 H       1  UNL1        0.0000
@<TRIPOS>BOND
     1    15    13    1
     2    16    13    1
     3    14    13    1
     4    13     1    1
     5    11     9    1
     6    10     9    1
     7     7     5    1
     8     1     9    1
     9     1     5    1
    10     1     2    1
    11     9    12    1
    12     8     5    1
    13     5     6    1
    14     4     2    1
    15     2     3    1
