@<TRIPOS>MOLECULE
2
 29 29 0 0 0
SMALL
GASTEIGER

@<TRIPOS>ATOM
      1 C           1.9424    9.4013   16.4277 C.3     1  UNL1       -0.0579
      2 C           1.5303    8.3986   15.3251 C.3     1  UNL1       -0.0121
      3 C           1.3760    9.0452   13.9894 C.ar    1  UNL1       -0.0440
      4 C           1.6894    8.3355   12.8218 C.ar    1  UNL1       -0.0580
      5 C           1.5762    8.9030   11.5682 C.ar    1  UNL1       -0.0578
      6 C           1.1479   10.2175   11.4009 C.ar    1  UNL1       -0.0420
      7 C           0.8276   10.9242   12.5574 C.ar    1  UNL1       -0.0578
      8 C           0.9379   10.3633   13.8146 C.ar    1  UNL1       -0.0580
      9 C           1.0361   10.8930   10.0434 C.3     1  UNL1       -0.0127
     10 C          -0.4138   11.3432    9.8127 C.3     1  UNL1       -0.0560
     11 C           1.4331    9.9667    8.8909 C.3     1  UNL1       -0.0560
     12 C           1.9658   12.1146   10.0161 C.3     1  UNL1       -0.0560
     13 H           2.7838   10.0158   16.0898 H       1  UNL1        0.0236
     14 H           2.2637    8.8653   17.3227 H       1  UNL1        0.0236
     15 H           1.1372   10.0787   16.7168 H       1  UNL1        0.0236
     16 H           2.3765    7.6930   15.2315 H       1  UNL1        0.0352
     17 H           2.0350    7.3111   12.9057 H       1  UNL1        0.0620
     18 H           1.8421    8.3003   10.7143 H       1  UNL1        0.0621
     19 H           0.4953   11.9506   12.4855 H       1  UNL1        0.0621
     20 H           0.6786   10.9661   14.6743 H       1  UNL1        0.0620
     21 H          -1.0815   10.4838    9.8284 H       1  UNL1        0.0238
     22 H          -0.5040   11.8334    8.8454 H       1  UNL1        0.0238
     23 H          -0.7381   12.0434   10.5778 H       1  UNL1        0.0238
     24 H           2.4669    9.6437    8.9880 H       1  UNL1        0.0238
     25 H           1.3348   10.4989    7.9467 H       1  UNL1        0.0238
     26 H           0.7884    9.0914    8.8518 H       1  UNL1        0.0238
     27 H           2.9926   11.8084   10.2045 H       1  UNL1        0.0238
     28 H           1.6842   12.8423   10.7723 H       1  UNL1        0.0238
     29 H           1.9224   12.5999    9.0431 H       1  UNL1        0.0238
@<TRIPOS>BOND
     1    25    11    1
     2    22    10    1
     3    26    11    1
     4    11    24    1
     5    11     9    1
     6    29    12    1
     7    10    21    1
     8    10     9    1
     9    10    23    1
    10    12     9    1
    11    12    27    1
    12    12    28    1
    13     9     6    1
    14    18     5    1
    15     6     5   ar
    16     6     7   ar
    17     5     4   ar
    18    19     7    1
    19     7     8   ar
    20     4    17    1
    21     4     3   ar
    22     8     3   ar
    23     8    20    1
    24     3     2    1
    25    16     2    1
    26     2     1    1
    27    13     1    1
    28     1    15    1
    29     1    14    1
