@<TRIPOS>MOLECULE
2
 16 15 0 0 0
SMALL
GASTEIGER

@<TRIPOS>ATOM
      1 SI          8.3311   11.2517   11.7704 Si      1  UNL1        0.0000
      2 C           8.6591   10.5510   10.0572 C.3     1  UNL1        0.0000
      3 H           9.6000   10.9672    9.6750 H       1  UNL1        0.0000
      4 H           7.8706   10.9146    9.3845 H       1  UNL1        0.0000
      5 C           7.8465   13.1094   11.8097 C.3     1  UNL1        0.0000
      6 H           8.6283   13.7328   11.3872 H       1  UNL1        0.0000
      7 H           7.6606   13.4568   12.8214 H       1  UNL1        0.0000
      8 H           6.9420   13.2807   11.2332 H       1  UNL1        0.0000
      9 C           6.8745   10.3284   12.6181 C.3     1  UNL1        0.0000
     10 H           5.9447   10.8759   12.5006 H       1  UNL1        0.0000
     11 H           7.0456   10.2020   13.6827 H       1  UNL1        0.0000
     12 H           6.7278    9.3376   12.1861 H       1  UNL1        0.0000
     13 C           9.8913   11.0484   12.8627 C.3     1  UNL1        0.0000
     14 H          10.1974   10.0085   12.9219 H       1  UNL1        0.0000
     15 H           9.7156   11.3996   13.8746 H       1  UNL1        0.0000
     16 H          10.7254   11.6153   12.4614 H       1  UNL1        0.0000
@<TRIPOS>BOND
     1     4     2    1
     2     3     2    1
     3     2     1    1
     4     8     5    1
     5     6     5    1
     6     1     5    1
     7     1     9    1
     8     1    13    1
     9     5     7    1
    10    12     9    1
    11    16    13    1
    12    10     9    1
    13     9    11    1
    14    13    14    1
    15    13    15    1
