@<TRIPOS>MOLECULE
2
 16 15 0 0 0
SMALL
GASTEIGER

@<TRIPOS>ATOM
      1 SI          9.6190    5.2643   11.9995 Si      1  UNL1        0.0000
      2 C           9.4146    7.1316   11.9073 C.3     1  UNL1        0.0000
      3 H          10.3807    7.5840   12.1715 H       1  UNL1        0.0000
      4 H           8.7256    7.4449   12.7045 H       1  UNL1        0.0000
      5 C           8.0775    4.3642   11.2957 C.3     1  UNL1        0.0000
      6 H           7.2612    4.3602   12.0110 H       1  UNL1        0.0000
      7 H           8.3006    3.3289   11.0559 H       1  UNL1        0.0000
      8 H           7.7149    4.8416   10.3881 H       1  UNL1        0.0000
      9 C          11.1514    4.7153   10.9878 C.3     1  UNL1        0.0000
     10 H          11.0860    5.0407    9.9545 H       1  UNL1        0.0000
     11 H          11.2564    3.6348   10.9869 H       1  UNL1        0.0000
     12 H          12.0629    5.1292   11.4084 H       1  UNL1        0.0000
     13 C           9.8713    4.5700   13.7712 C.3     1  UNL1        0.0000
     14 H          10.7716    4.9730   14.2248 H       1  UNL1        0.0000
     15 H           9.9597    3.4877   13.7731 H       1  UNL1        0.0000
     16 H           9.0382    4.8312   14.4168 H       1  UNL1        0.0000
@<TRIPOS>BOND
     1    10     9    1
     2     8     5    1
     3    11     9    1
     4     9    12    1
     5     9     1    1
     6     7     5    1
     7     5     1    1
     8     5     6    1
     9     2     1    1
    10     2     3    1
    11     2     4    1
    12     1    13    1
    13    13    15    1
    14    13    14    1
    15    13    16    1
