@<TRIPOS>MOLECULE
2
 16 15 0 0 0
SMALL
GASTEIGER

@<TRIPOS>ATOM
      1 SI          7.0786    9.0801   18.5581 Si      1  UNL1        0.0000
      2 C           6.2255    8.8163   16.8964 C.3     1  UNL1        0.0000
      3 H           6.8649    9.2369   16.1103 H       1  UNL1        0.0000
      4 H           5.3153    9.4309   16.8891 H       1  UNL1        0.0000
      5 C           8.0093    7.4770   19.0732 C.3     1  UNL1        0.0000
      6 H           7.3293    6.6251   19.1245 H       1  UNL1        0.0000
      7 H           8.4797    7.5824   20.0469 H       1  UNL1        0.0000
      8 H           8.7951    7.2328   18.3619 H       1  UNL1        0.0000
      9 C           8.4038   10.4707   18.5539 C.3     1  UNL1        0.0000
     10 H           9.1867   10.2676   17.8290 H       1  UNL1        0.0000
     11 H           8.8780   10.5763   19.5246 H       1  UNL1        0.0000
     12 H           7.9647   11.4297   18.2983 H       1  UNL1        0.0000
     13 C           5.8142    9.5048   19.9267 C.3     1  UNL1        0.0000
     14 H           5.4616   10.5261   19.8271 H       1  UNL1        0.0000
     15 H           6.2437    9.4029   20.9183 H       1  UNL1        0.0000
     16 H           4.9478    8.8537   19.8714 H       1  UNL1        0.0000
@<TRIPOS>BOND
     1     3     2    1
     2     4     2    1
     3     2     1    1
     4    10     9    1
     5    12     9    1
     6     8     5    1
     7     9     1    1
     8     9    11    1
     9     1     5    1
    10     1    13    1
    11     5     6    1
    12     5     7    1
    13    14    13    1
    14    16    13    1
    15    13    15    1
