@<TRIPOS>MOLECULE
2
 16 15 0 0 0
SMALL
GASTEIGER

@<TRIPOS>ATOM
      1 SI          3.7504    7.3383   14.7814 Si      1  UNL1        0.0000
      2 C           1.9462    7.8308   14.9560 C.3     1  UNL1        0.0000
      3 H           1.4727    7.1818   15.7042 H       1  UNL1        0.0000
      4 H           1.4346    7.6128   14.0107 H       1  UNL1        0.0000
      5 C           4.0977    5.5541   14.1627 C.3     1  UNL1        0.0000
      6 H           3.6591    4.8154   14.8267 H       1  UNL1        0.0000
      7 H           5.1621    5.3480   14.1021 H       1  UNL1        0.0000
      8 H           3.6770    5.3948   13.1747 H       1  UNL1        0.0000
      9 C           4.5920    8.5188   13.5276 C.3     1  UNL1        0.0000
     10 H           4.2142    8.3528   12.5226 H       1  UNL1        0.0000
     11 H           5.6680    8.3774   13.4992 H       1  UNL1        0.0000
     12 H           4.3970    9.5579   13.7879 H       1  UNL1        0.0000
     13 C           4.6105    7.4907   16.4898 C.3     1  UNL1        0.0000
     14 H           4.3027    8.3956   17.0094 H       1  UNL1        0.0000
     15 H           5.6911    7.5162   16.3917 H       1  UNL1        0.0000
     16 H           4.3635    6.6460   17.1257 H       1  UNL1        0.0000
@<TRIPOS>BOND
     1    10     9    1
     2     8     5    1
     3    11     9    1
     4     9    12    1
     5     9     1    1
     6     4     2    1
     7     7     5    1
     8     5     1    1
     9     5     6    1
    10     1     2    1
    11     1    13    1
    12     2     3    1
    13    15    13    1
    14    13    14    1
    15    13    16    1
