@<TRIPOS>MOLECULE
2
 16 15 0 0 0
SMALL
GASTEIGER

@<TRIPOS>ATOM
      1 SI          3.4811   12.7217   17.3800 Si      1  UNL1        0.0000
      2 C           3.5755   11.4128   16.0367 C.3     1  UNL1        0.0000
      3 H           4.3845   10.7144   16.2878 H       1  UNL1        0.0000
      4 H           3.8903   11.9037   15.1045 H       1  UNL1        0.0000
      5 C           2.5312   14.2753   16.7838 C.3     1  UNL1        0.0000
      6 H           2.8548   14.5663   15.7883 H       1  UNL1        0.0000
      7 H           2.7067   15.1197   17.4433 H       1  UNL1        0.0000
      8 H           1.4603   14.1081   16.7466 H       1  UNL1        0.0000
      9 C           2.5824   11.9829   18.9077 C.3     1  UNL1        0.0000
     10 H           2.2971   12.7527   19.6182 H       1  UNL1        0.0000
     11 H           3.2265   11.2830   19.4336 H       1  UNL1        0.0000
     12 H           1.6793   11.4530   18.6091 H       1  UNL1        0.0000
     13 C           5.1809   13.3528   18.0106 C.3     1  UNL1        0.0000
     14 H           5.7278   13.8531   17.2174 H       1  UNL1        0.0000
     15 H           5.7970   12.5307   18.3620 H       1  UNL1        0.0000
     16 H           5.0755   14.0562   18.8312 H       1  UNL1        0.0000
@<TRIPOS>BOND
     1     4     2    1
     2     6     5    1
     3     2     3    1
     4     2     1    1
     5     8     5    1
     6     5     1    1
     7     5     7    1
     8    14    13    1
     9     1    13    1
    10     1     9    1
    11    13    15    1
    12    13    16    1
    13    12     9    1
    14     9    11    1
    15     9    10    1
