@<TRIPOS>MOLECULE
1
 14 14 0 0 0
SMALL
GASTEIGER

@<TRIPOS>ATOM
      1 C           3.0366    5.3694    5.3222 C.3     1  UNL1       -0.0237
      2 C           2.9386    6.5362    4.4291 C.ar    1  UNL1       -0.0470
      3 C           2.1406    7.6439    4.7439 C.ar    1  UNL1       -0.0586
      4 C           2.0367    8.7226    3.8865 C.ar    1  UNL1       -0.0615
      5 C           2.7410    8.7396    2.6936 C.ar    1  UNL1       -0.0617
      6 C           3.5686    7.6723    2.3813 C.ar    1  UNL1       -0.0615
      7 C           3.6715    6.5919    3.2361 C.ar    1  UNL1       -0.0586
      8 H           2.6973    5.6367    6.3344 H       1  UNL1        0.0316
      9 H           4.0806    5.0307    5.3672 H       1  UNL1        0.0316
     10 H           1.6076    7.6581    5.6857 H       1  UNL1        0.0620
     11 H           1.4100    9.5617    4.1550 H       1  UNL1        0.0618
     12 H           2.6592    9.5825    2.0237 H       1  UNL1        0.0618
     13 H           4.1413    7.6814    1.4648 H       1  UNL1        0.0618
     14 H           4.3379    5.7752    2.9905 H       1  UNL1        0.0620
@<TRIPOS>BOND
     1    13     6    1
     2    12     5    1
     3     6     5   ar
     4     6     7   ar
     5     5     4   ar
     6    14     7    1
     7     7     2   ar
     8     4    11    1
     9     4     3   ar
    10     2     3   ar
    11     2     1    1
    12     3    10    1
    13     1     9    1
    14     1     8    1
