@<TRIPOS>MOLECULE
1
 14 14 0 0 0
SMALL
GASTEIGER

@<TRIPOS>ATOM
      1 C           2.4836    2.3777    6.0841 C.3     1  UNL1       -0.0237
      2 C           3.9362    2.1542    6.1577 C.ar    1  UNL1       -0.0470
      3 C           4.5551    1.1386    5.4181 C.ar    1  UNL1       -0.0586
      4 C           5.9136    0.9086    5.5160 C.ar    1  UNL1       -0.0615
      5 C           6.6998    1.6859    6.3516 C.ar    1  UNL1       -0.0617
      6 C           6.1071    2.6933    7.0961 C.ar    1  UNL1       -0.0615
      7 C           4.7468    2.9195    7.0072 C.ar    1  UNL1       -0.0586
      8 H           2.1132    2.7598    7.0453 H       1  UNL1        0.0316
      9 H           1.9788    1.4309    5.8511 H       1  UNL1        0.0316
     10 H           3.9555    0.5186    4.7635 H       1  UNL1        0.0620
     11 H           6.3622    0.1093    4.9442 H       1  UNL1        0.0618
     12 H           7.7611    1.5032    6.4281 H       1  UNL1        0.0618
     13 H           6.7088    3.2982    7.7600 H       1  UNL1        0.0618
     14 H           4.2923    3.6923    7.6163 H       1  UNL1        0.0620
@<TRIPOS>BOND
     1    10     3    1
     2    11     4    1
     3     3     4   ar
     4     3     2   ar
     5     4     5   ar
     6     9     1    1
     7     1     2    1
     8     1     8    1
     9     2     7   ar
    10     5    12    1
    11     5     6   ar
    12     7     6   ar
    13     7    14    1
    14     6    13    1
