@<TRIPOS>MOLECULE
3
 18 17 0 0 0
SMALL
GASTEIGER

@<TRIPOS>ATOM
      1 SI          3.4500    0.1879    6.1174 Si      1  UNL1        0.0000
      2 O           1.2154    2.6147    4.9315 O.2     1  UNL1        0.0000
      3 C           1.7009    1.7168    4.3067 C.2     1  UNL1        0.0000
      4 C           2.9718    0.9928    4.4419 C.3     1  UNL1        0.0000
      5 C           4.8746    1.2677    6.7848 C.3     1  UNL1        0.0000
      6 C           2.0339    0.1552    7.3888 C.3     1  UNL1        0.0000
      7 C           4.0619   -1.5828    5.7489 C.3     1  UNL1        0.0000
      8 H           3.7915    1.6388    4.1197 H       1  UNL1        0.0000
      9 H           2.9041    0.1721    3.6641 H       1  UNL1        0.0000
     10 H           4.5576    2.2967    6.9248 H       1  UNL1        0.0000
     11 H           5.7320    1.2729    6.1181 H       1  UNL1        0.0000
     12 H           5.2116    0.8955    7.7465 H       1  UNL1        0.0000
     13 H           1.2839   -0.5897    7.1422 H       1  UNL1        0.0000
     14 H           1.5430    1.1217    7.4550 H       1  UNL1        0.0000
     15 H           2.4223   -0.0835    8.3746 H       1  UNL1        0.0000
     16 H           4.8252   -1.5881    4.9740 H       1  UNL1        0.0000
     17 H           3.2459   -2.2171    5.4108 H       1  UNL1        0.0000
     18 H           4.4894   -2.0428    6.6342 H       1  UNL1        0.0000
@<TRIPOS>BOND
     1     9     4    1
     2     8     4    1
     3     3     4    1
     4     3     2    2
     5     4     1    1
     6    16     7    1
     7    17     7    1
     8     7     1    1
     9     7    18    1
    10     1     5    1
    11     1     6    1
    12    11     5    1
    13     5    10    1
    14     5    12    1
    15    13     6    1
    16     6    14    1
    17     6    15    1
