@<TRIPOS>MOLECULE
1
 4 3 0 0 0
SMALL
GASTEIGER

@<TRIPOS>ATOM
      1 C           5.4258    3.1037    2.2263 C.3     1  UNL1       -0.0681
      2 H           6.5196    3.0076    2.2634 H       1  UNL1        0.0227
      3 H           5.0482    2.0782    2.3400 H       1  UNL1        0.0227
      4 H           5.1317    3.6447    3.1449 H       1  UNL1        0.0227
@<TRIPOS>BOND
     1     1     2    1
     2     1     3    1
     3     1     4    1
