@<TRIPOS>MOLECULE
1
 4 3 0 0 0
SMALL
GASTEIGER

@<TRIPOS>ATOM
      1 C           5.3987    2.8823   -1.1590 C.3     1  UNL1       -0.0681
      2 H           6.4928    2.7907   -1.2074 H       1  UNL1        0.0227
      3 H           5.0792    3.3162   -2.1253 H       1  UNL1        0.0227
      4 H           5.0112    1.8541   -1.1381 H       1  UNL1        0.0227
@<TRIPOS>BOND
     1     3     1    1
     2     2     1    1
     3     1     4    1
