@<TRIPOS>MOLECULE
1
 13 12 0 0 0
SMALL
GASTEIGER

@<TRIPOS>ATOM
      1 C           4.2154    7.2936   14.9080 C.3     1  UNL1       -0.0328
      2 C           4.3444    5.9277   14.1900 C.3     1  UNL1       -0.0596
      3 H           5.2024    5.9385   13.5037 H       1  UNL1        0.0235
      4 H           3.4553    5.6998   13.6023 H       1  UNL1        0.0235
      5 H           4.5050    5.1175   14.9044 H       1  UNL1        0.0235
      6 C           4.1186    8.3605   13.7880 C.3     1  UNL1       -0.0596
      7 H           4.9806    8.2805   13.1114 H       1  UNL1        0.0235
      8 H           4.1173    9.3712   14.2002 H       1  UNL1        0.0235
      9 H           3.2166    8.2315   13.1860 H       1  UNL1        0.0235
     10 C           5.5812    7.5306   15.5966 C.3     1  UNL1       -0.0596
     11 H           6.3911    7.4895   14.8553 H       1  UNL1        0.0235
     12 H           5.7863    6.7656   16.3482 H       1  UNL1        0.0235
     13 H           5.6241    8.5088   16.0759 H       1  UNL1        0.0235
@<TRIPOS>BOND
     1     7     6    1
     2     9     6    1
     3     3     2    1
     4     4     2    1
     5     6     8    1
     6     6     1    1
     7     2     5    1
     8     2     1    1
     9    11    10    1
    10     1    10    1
    11    10    13    1
    12    10    12    1
