@<TRIPOS>MOLECULE
3
 28 27 0 0 0
SMALL
GASTEIGER

@<TRIPOS>ATOM
      1 SI          0.5139    4.1570    5.6640 Si      1  UNL1        0.0000
      2 SI          1.6844    1.3580    4.6465 Si      1  UNL1        0.0000
      3 C           2.0346    3.0663    5.3901 C.3     1  UNL1        0.0000
      4 H           2.4171    2.8459    6.3980 H       1  UNL1        0.0000
      5 C           1.0983    5.8292    6.4064 C.3     1  UNL1        0.0000
      6 H           2.0288    6.1374    5.9246 H       1  UNL1        0.0000
      7 H           1.2764    5.7581    7.4754 H       1  UNL1        0.0000
      8 H           0.3684    6.6188    6.2566 H       1  UNL1        0.0000
      9 C          -0.7668    3.4305    6.8960 C.3     1  UNL1        0.0000
     10 H          -1.1777    2.5005    6.5177 H       1  UNL1        0.0000
     11 H          -1.5957    4.1102    7.0680 H       1  UNL1        0.0000
     12 H          -0.3132    3.2166    7.8588 H       1  UNL1        0.0000
     13 C          -0.4381    4.5565    4.0532 C.3     1  UNL1        0.0000
     14 H          -1.2038    3.8165    3.8522 H       1  UNL1        0.0000
     15 H           0.2376    4.5743    3.2052 H       1  UNL1        0.0000
     16 H          -0.9268    5.5239    4.1100 H       1  UNL1        0.0000
     17 C           3.1642    0.7978    3.5537 C.3     1  UNL1        0.0000
     18 H           2.8744    0.6447    2.5179 H       1  UNL1        0.0000
     19 H           3.5951   -0.1342    3.9072 H       1  UNL1        0.0000
     20 H           3.9490    1.5592    3.5802 H       1  UNL1        0.0000
     21 C           1.4775    0.0352    6.0231 C.3     1  UNL1        0.0000
     22 H           0.6632    0.2977    6.6905 H       1  UNL1        0.0000
     23 H           2.3773   -0.0507    6.6236 H       1  UNL1        0.0000
     24 H           1.2622   -0.9468    5.6129 H       1  UNL1        0.0000
     25 C           0.1161    1.1921    3.5612 C.3     1  UNL1        0.0000
     26 H          -0.7800    1.3381    4.1534 H       1  UNL1        0.0000
     27 H           0.0575    0.2024    3.1180 H       1  UNL1        0.0000
     28 H           0.0975    1.9146    2.7538 H       1  UNL1        0.0000
@<TRIPOS>BOND
     1    18    17    1
     2    28    25    1
     3    27    25    1
     4    15    13    1
     5    17    20    1
     6    17    19    1
     7    17     2    1
     8    25    26    1
     9    25     2    1
    10    14    13    1
    11    13    16    1
    12    13     1    1
    13     2     3    1
    14     2    21    1
    15     3     1    1
    16     3     4    1
    17    24    21    1
    18     1     5    1
    19     1     9    1
    20     6     5    1
    21    21    23    1
    22    21    22    1
    23     8     5    1
    24     5     7    1
    25    10     9    1
    26     9    11    1
    27     9    12    1
