@<TRIPOS>MOLECULE
1
 13 12 0 0 0
SMALL
GASTEIGER

@<TRIPOS>ATOM
      1 C           3.5637    9.4519    1.6357 C.3     1  UNL1       -0.0531
      2 C           2.6563    9.9936    2.7407 C.3     1  UNL1       -0.0533
      3 C           1.6220   10.9947    2.2052 C.3     1  UNL1       -0.0559
      4 C           0.7379   11.5528    3.3142 C.3     1  UNL1       -0.0653
      5 H           4.2185   10.2702    1.2873 H       1  UNL1        0.0265
      6 H           2.9263    9.1919    0.7721 H       1  UNL1        0.0265
      7 H           2.1200    9.1678    3.2294 H       1  UNL1        0.0265
      8 H           3.2547   10.5048    3.4999 H       1  UNL1        0.0265
      9 H           2.1449   11.8169    1.7097 H       1  UNL1        0.0263
     10 H           0.9962   10.5019    1.4564 H       1  UNL1        0.0263
     11 H           1.3390   12.0705    4.0592 H       1  UNL1        0.0230
     12 H           0.0130   12.2564    2.9108 H       1  UNL1        0.0230
     13 H           0.1963   10.7501    3.8108 H       1  UNL1        0.0230
@<TRIPOS>BOND
     1     6     1    1
     2     5     1    1
     3    10     3    1
     4     1     2    1
     5     9     3    1
     6     3     2    1
     7     3     4    1
     8     2     7    1
     9     2     8    1
    10    12     4    1
    11     4    13    1
    12     4    11    1
