@<TRIPOS>MOLECULE
2
 15 14 0 0 0
SMALL
GASTEIGER

@<TRIPOS>ATOM
      1 N           8.8037    7.6417    7.8218 N.3     1  UNL1       -0.2219
      2 C           8.7208    6.7579    7.0498 C.3     1  UNL1        0.1072
      3 C           8.8434    8.7225    8.7250 C.3     1  UNL1        0.0290
      4 C          10.1186    9.5312    8.4636 C.3     1  UNL1       -0.0458
      5 C           7.6022    9.5920    8.4909 C.3     1  UNL1       -0.0458
      6 C           8.8438    8.1664   10.1531 C.3     1  UNL1       -0.0458
      7 H          10.1183    9.9138    7.4462 H       1  UNL1        0.0248
      8 H          10.9961    8.9032    8.5962 H       1  UNL1        0.0248
      9 H          10.1772   10.3670    9.1563 H       1  UNL1        0.0248
     10 H           6.6981    9.0113    8.6562 H       1  UNL1        0.0248
     11 H           7.5908    9.9660    7.4700 H       1  UNL1        0.0248
     12 H           7.6067   10.4372    9.1747 H       1  UNL1        0.0248
     13 H           7.9425    7.5849   10.3295 H       1  UNL1        0.0248
     14 H           8.8848    8.9827   10.8700 H       1  UNL1        0.0248
     15 H           9.7059    7.5218   10.3054 H       1  UNL1        0.0248
@<TRIPOS>BOND
     1     2     1    1
     2     7     4    1
     3    11     5    1
     4     1     3    1
     5     4     8    1
     6     4     3    1
     7     4     9    1
     8     5    10    1
     9     5     3    1
    10     5    12    1
    11     3     6    1
    12     6    15    1
    13     6    13    1
    14     6    14    1
