@<TRIPOS>MOLECULE
2
 14 13 0 0 0
SMALL
GASTEIGER

@<TRIPOS>ATOM
      1 N           2.2059    1.8856    0.1305 N.3     1  UNL1       -0.2976
      2 C           3.5717    4.5328    1.9226 C.1     1  UNL1       -0.0135
      3 C           3.1603    3.9969    0.9172 C.1     1  UNL1       -0.0729
      4 C           2.6074    3.2466   -0.2132 C.3     1  UNL1        0.0614
      5 H           1.7218    3.7687   -0.5937 H       1  UNL1        0.0563
      6 H           3.3445    3.1863   -1.0221 H       1  UNL1        0.0563
      7 C           1.1965    1.8759    1.1687 C.3     1  UNL1       -0.0122
      8 H           0.8858    0.8480    1.3522 H       1  UNL1        0.0391
      9 H           0.3323    2.4458    0.8289 H       1  UNL1        0.0391
     10 H           1.5511    2.3174    2.1148 H       1  UNL1        0.0391
     11 C           3.3451    1.0630    0.4771 C.3     1  UNL1       -0.0122
     12 H           3.0013    0.0514    0.6907 H       1  UNL1        0.0391
     13 H           3.8977    1.4417    1.3516 H       1  UNL1        0.0391
     14 H           4.0277    1.0248   -0.3719 H       1  UNL1        0.0391
@<TRIPOS>BOND
     1     6     4    1
     2     5     4    1
     3    14    11    1
     4     4     1    1
     5     4     3    1
     6     1    11    1
     7     1     7    1
     8    11    12    1
     9    11    13    1
    10     9     7    1
    11     3     2    3
    12     7     8    1
    13     7    10    1
