@<TRIPOS>MOLECULE
2
 14 13 0 0 0
SMALL
GASTEIGER

@<TRIPOS>ATOM
      1 N          -0.9498    5.3064    4.7962 N.3     1  UNL1       -0.2976
      2 C           2.3222    5.9957    3.9937 C.1     1  UNL1       -0.0135
      3 C           1.1641    6.3209    4.1411 C.1     1  UNL1       -0.0729
      4 C          -0.2700    6.5227    4.3591 C.3     1  UNL1        0.0614
      5 H          -0.4362    7.2951    5.1185 H       1  UNL1        0.0563
      6 H          -0.7375    6.8534    3.4247 H       1  UNL1        0.0563
      7 C          -0.8057    4.2422    3.8234 C.3     1  UNL1       -0.0122
      8 H          -1.3730    3.3753    4.1597 H       1  UNL1        0.0391
      9 H           0.2455    3.9462    3.6685 H       1  UNL1        0.0391
     10 H          -1.2134    4.5768    2.8702 H       1  UNL1        0.0391
     11 C          -0.5064    4.8926    6.1103 C.3     1  UNL1       -0.0122
     12 H          -0.7030    5.6938    6.8227 H       1  UNL1        0.0391
     13 H           0.5691    4.6543    6.1402 H       1  UNL1        0.0391
     14 H          -1.0706    4.0116    6.4142 H       1  UNL1        0.0391
@<TRIPOS>BOND
     1    10     7    1
     2     6     4    1
     3     9     7    1
     4     7     8    1
     5     7     1    1
     6     2     3    3
     7     3     4    1
     8     4     1    1
     9     4     5    1
    10     1    11    1
    11    11    13    1
    12    11    14    1
    13    11    12    1
