@<TRIPOS>MOLECULE
1
 40 39 0 0 0
SMALL
GASTEIGER

@<TRIPOS>ATOM
      1 C           3.5951    2.6177    1.9614 C.3     1  UNL1        0.0000
      2 SI          1.7551    3.0516    1.9487 Si      1  UNL1        0.0000
      3 C           1.3153    4.8430    1.4318 C.3     1  UNL1        0.0000
      4 H           0.2663    4.9134    1.1601 H       1  UNL1        0.0000
      5 H           1.8953    5.1919    0.5885 H       1  UNL1        0.0000
      6 H           1.4812    5.5343    2.2500 H       1  UNL1        0.0000
      7 C           0.9567    1.8719    0.6662 C.3     1  UNL1        0.0000
      8 H           0.2256    2.3796    0.0468 H       1  UNL1        0.0000
      9 H           0.4475    1.0469    1.1492 H       1  UNL1        0.0000
     10 H           1.7205    1.4519    0.0130 H       1  UNL1        0.0000
     11 C           0.8829    2.8359    3.6386 C.3     1  UNL1        0.0000
     12 H          -0.1658    3.1113    3.5799 H       1  UNL1        0.0000
     13 H           1.3454    3.4652    4.3912 H       1  UNL1        0.0000
     14 H           0.9352    1.8132    3.9919 H       1  UNL1        0.0000
     15 SI          4.0043    1.0028    2.8550 Si      1  UNL1        0.0000
     16 C           2.6744   -0.3727    2.7652 C.3     1  UNL1        0.0000
     17 H           1.8611   -0.1722    3.4529 H       1  UNL1        0.0000
     18 H           3.1014   -1.3314    3.0439 H       1  UNL1        0.0000
     19 H           2.2467   -0.4804    1.7779 H       1  UNL1        0.0000
     20 C           4.3287    1.2037    4.7305 C.3     1  UNL1        0.0000
     21 H           3.4615    1.6272    5.2253 H       1  UNL1        0.0000
     22 H           5.1686    1.8591    4.9272 H       1  UNL1        0.0000
     23 H           4.5395    0.2474    5.1996 H       1  UNL1        0.0000
     24 C           5.5817    0.3258    2.0021 C.3     1  UNL1        0.0000
     25 H           5.7190    0.7996    1.0309 H       1  UNL1        0.0000
     26 H           5.5321   -0.7467    1.8498 H       1  UNL1        0.0000
     27 H           6.4682    0.5232    2.5923 H       1  UNL1        0.0000
     28 SI          4.7303    4.0600    2.4141 Si      1  UNL1        0.0000
     29 C           4.1452    5.0788    3.9250 C.3     1  UNL1        0.0000
     30 H           4.0716    4.4506    4.8060 H       1  UNL1        0.0000
     31 H           3.1711    5.5228    3.7586 H       1  UNL1        0.0000
     32 H           4.8395    5.8821    4.1519 H       1  UNL1        0.0000
     33 C           6.5421    3.6057    2.8388 C.3     1  UNL1        0.0000
     34 H           6.6187    3.2143    3.8466 H       1  UNL1        0.0000
     35 H           7.1759    4.4858    2.7872 H       1  UNL1        0.0000
     36 H           6.9572    2.8647    2.1696 H       1  UNL1        0.0000
     37 C           4.7744    5.1891    0.8659 C.3     1  UNL1        0.0000
     38 H           4.1355    6.0553    0.9881 H       1  UNL1        0.0000
     39 H           4.4273    4.6430   -0.0103 H       1  UNL1        0.0000
     40 H           5.7738    5.5564    0.6600 H       1  UNL1        0.0000
@<TRIPOS>BOND
     1    39    37    1
     2    10     7    1
     3     8     7    1
     4     5     3    1
     5    40    37    1
     6     7     9    1
     7     7     2    1
     8    37    38    1
     9    37    28    1
    10    25    24    1
    11     4     3    1
    12     3     2    1
    13     3     6    1
    14    19    16    1
    15    26    24    1
    16     2     1    1
    17     2    11    1
    18     1    28    1
    19     1    15    1
    20    24    27    1
    21    24    15    1
    22    36    33    1
    23    28    33    1
    24    28    29    1
    25    16    15    1
    26    16    18    1
    27    16    17    1
    28    35    33    1
    29    33    34    1
    30    15    20    1
    31    12    11    1
    32    11    14    1
    33    11    13    1
    34    31    29    1
    35    29    32    1
    36    29    30    1
    37    20    22    1
    38    20    23    1
    39    20    21    1
