@<TRIPOS>MOLECULE
1
 40 39 0 0 0
SMALL
GASTEIGER

@<TRIPOS>ATOM
      1 C           4.4688    1.8448   -1.9614 C.3     1  UNL1        0.0000
      2 SI          6.3089    1.4108   -1.9487 Si      1  UNL1        0.0000
      3 C           6.7487   -0.3805   -1.4318 C.3     1  UNL1        0.0000
      4 H           7.7977   -0.4509   -1.1600 H       1  UNL1        0.0000
      5 H           6.1687   -0.7295   -0.5885 H       1  UNL1        0.0000
      6 H           6.5828   -1.0718   -2.2499 H       1  UNL1        0.0000
      7 C           7.1074    2.5906   -0.6663 C.3     1  UNL1        0.0000
      8 H           7.8386    2.0829   -0.0469 H       1  UNL1        0.0000
      9 H           7.6167    3.4156   -1.1494 H       1  UNL1        0.0000
     10 H           6.3438    3.0108   -0.0130 H       1  UNL1        0.0000
     11 C           7.1811    1.6266   -3.6386 C.3     1  UNL1        0.0000
     12 H           8.2298    1.3513   -3.5798 H       1  UNL1        0.0000
     13 H           6.7187    0.9973   -4.3912 H       1  UNL1        0.0000
     14 H           7.1288    2.6493   -3.9918 H       1  UNL1        0.0000
     15 SI          4.0596    3.4597   -2.8550 Si      1  UNL1        0.0000
     16 C           5.3896    4.8352   -2.7652 C.3     1  UNL1        0.0000
     17 H           6.2029    4.6347   -3.4528 H       1  UNL1        0.0000
     18 H           4.9625    5.7939   -3.0439 H       1  UNL1        0.0000
     19 H           5.8172    4.9429   -1.7778 H       1  UNL1        0.0000
     20 C           3.7353    3.2588   -4.7305 C.3     1  UNL1        0.0000
     21 H           4.6025    2.8354   -5.2254 H       1  UNL1        0.0000
     22 H           2.8955    2.6033   -4.9272 H       1  UNL1        0.0000
     23 H           3.5244    4.2151   -5.1995 H       1  UNL1        0.0000
     24 C           2.4823    4.1367   -2.0021 C.3     1  UNL1        0.0000
     25 H           2.3451    3.6629   -1.0309 H       1  UNL1        0.0000
     26 H           2.5318    5.2092   -1.8498 H       1  UNL1        0.0000
     27 H           1.5958    3.9393   -2.5923 H       1  UNL1        0.0000
     28 SI          3.3337    0.4024   -2.4141 Si      1  UNL1        0.0000
     29 C           3.9188   -0.6163   -3.9249 C.3     1  UNL1        0.0000
     30 H           3.9924    0.0118   -4.8060 H       1  UNL1        0.0000
     31 H           4.8929   -1.0603   -3.7586 H       1  UNL1        0.0000
     32 H           3.2245   -1.4197   -4.1519 H       1  UNL1        0.0000
     33 C           1.5219    0.8568   -2.8389 C.3     1  UNL1        0.0000
     34 H           1.4452    1.2482   -3.8466 H       1  UNL1        0.0000
     35 H           0.8881   -0.0233   -2.7873 H       1  UNL1        0.0000
     36 H           1.1067    1.5978   -2.1697 H       1  UNL1        0.0000
     37 C           3.2896   -0.7265   -0.8658 C.3     1  UNL1        0.0000
     38 H           3.9285   -1.5927   -0.9879 H       1  UNL1        0.0000
     39 H           3.6368   -0.1803    0.0103 H       1  UNL1        0.0000
     40 H           2.2902   -1.0938   -0.6599 H       1  UNL1        0.0000
@<TRIPOS>BOND
     1    21    20    1
     2    23    20    1
     3    22    20    1
     4    30    29    1
     5    20    15    1
     6    13    11    1
     7    32    29    1
     8    14    11    1
     9    29    31    1
    10    29    28    1
    11    34    33    1
    12    11    12    1
    13    11     2    1
    14    17    16    1
    15    18    16    1
    16    15    16    1
    17    15    24    1
    18    15     1    1
    19    33    35    1
    20    33    28    1
    21    33    36    1
    22    16    19    1
    23    27    24    1
    24    28     1    1
    25    28    37    1
    26     6     3    1
    27    24    26    1
    28    24    25    1
    29     1     2    1
    30     2     3    1
    31     2     7    1
    32     3     4    1
    33     3     5    1
    34     9     7    1
    35    38    37    1
    36    37    40    1
    37    37    39    1
    38     7     8    1
    39     7    10    1
