@<TRIPOS>MOLECULE
25
 62 63 0 0 0
SMALL
GASTEIGER

@<TRIPOS>ATOM
      1 O           3.1306    7.2006    7.3135 O.2     1  UNL1        0.0000
      2 C           3.0451    8.4358    7.9037 C.2     1  UNL1        0.0000
      3 C           3.1388    8.6155    9.2350 C.3     1  UNL1        0.0000
      4 H           3.0467    9.6096    9.6391 H       1  UNL1        0.0000
      5 C           3.2385    7.5017   10.2344 C.3     1  UNL1        0.0000
      6 H           4.2688    7.3993   10.6028 H       1  UNL1        0.0000
      7 C           2.8418    6.2031    9.5242 C.3     1  UNL1        0.0000
      8 H           1.7509    6.2238    9.3775 H       1  UNL1        0.0000
      9 C           3.5397    6.1492    8.1620 C.3     1  UNL1        0.0000
     10 H           4.6274    6.2037    8.3266 H       1  UNL1        0.0000
     11 C           3.1945    4.8030    7.5194 C.3     1  UNL1        0.0000
     12 H           2.1283    4.7941    7.2555 H       1  UNL1        0.0000
     13 H           3.7816    4.6391    6.6142 H       1  UNL1        0.0000
     14 O           3.5324    3.7546    8.3957 O.3     1  UNL1        0.0000
     15 C           2.9718    3.8310    9.6945 C.3     1  UNL1        0.0000
     16 C           3.7336    2.8082   10.5375 C.3     1  UNL1        0.0000
     17 H           3.3425    2.8057   11.5493 H       1  UNL1        0.0000
     18 H           4.7838    3.0812   10.5583 H       1  UNL1        0.0000
     19 H           3.6289    1.8252   10.0913 H       1  UNL1        0.0000
     20 C           1.4710    3.5066    9.6920 C.3     1  UNL1        0.0000
     21 H           1.0897    3.5915   10.7057 H       1  UNL1        0.0000
     22 H           1.3308    2.4912    9.3334 H       1  UNL1        0.0000
     23 H           0.9108    4.1802    9.0498 H       1  UNL1        0.0000
     24 O           3.2326    5.0928   10.2941 O.3     1  UNL1        0.0000
     25 C           2.8314    9.5123    6.9316 C.2     1  UNL1        0.0000
     26 O           2.8144   10.6721    7.5809 O.2     1  UNL1        0.0000
     27 C           2.5969   11.8768    6.8820 C.3     1  UNL1        0.0000
     28 H           2.6215   12.6695    7.6294 H       1  UNL1        0.0000
     29 H           1.6244   11.8687    6.3816 H       1  UNL1        0.0000
     30 H           3.3800   12.0449    6.1372 H       1  UNL1        0.0000
     31 O           2.3735    7.7391   11.3010 O.3     1  UNL1        0.0000
     32 SI          2.6433    8.0782   12.8842 Si      1  UNL1        0.0000
     33 C           2.8497    9.9863   13.1042 C.3     1  UNL1        0.0000
     34 H           2.8593   10.2246   14.1720 H       1  UNL1        0.0000
     35 C           1.6756   10.7437   12.4832 C.3     1  UNL1        0.0000
     36 H           0.7466   10.4925   12.9871 H       1  UNL1        0.0000
     37 H           1.5693   10.4892   11.4313 H       1  UNL1        0.0000
     38 H           1.8262   11.8199   12.5634 H       1  UNL1        0.0000
     39 C           4.1627   10.5039   12.5138 C.3     1  UNL1        0.0000
     40 H           5.0195   10.0448   12.9995 H       1  UNL1        0.0000
     41 H           4.2399   11.5834   12.6418 H       1  UNL1        0.0000
     42 H           4.2197   10.2859   11.4499 H       1  UNL1        0.0000
     43 C           0.9628    7.5147   13.6157 C.3     1  UNL1        0.0000
     44 H           0.1985    8.1500   13.1562 H       1  UNL1        0.0000
     45 C           0.8785    7.7180   15.1254 C.3     1  UNL1        0.0000
     46 H           1.1148    8.7443   15.3938 H       1  UNL1        0.0000
     47 H           1.5754    7.0612   15.6397 H       1  UNL1        0.0000
     48 H          -0.1237    7.4917   15.4872 H       1  UNL1        0.0000
     49 C           0.6092    6.0724   13.2572 C.3     1  UNL1        0.0000
     50 H           0.7147    5.9146   12.1881 H       1  UNL1        0.0000
     51 H          -0.4181    5.8491   13.5438 H       1  UNL1        0.0000
     52 H           1.2629    5.3739   13.7717 H       1  UNL1        0.0000
     53 C           4.2449    7.2271   13.5302 C.3     1  UNL1        0.0000
     54 H           5.0538    7.5404   12.8573 H       1  UNL1        0.0000
     55 C           4.1762    5.7013   13.4592 C.3     1  UNL1        0.0000
     56 H           3.8549    5.3728   12.4751 H       1  UNL1        0.0000
     57 H           3.4785    5.3191   14.2001 H       1  UNL1        0.0000
     58 H           5.1540    5.2673   13.6674 H       1  UNL1        0.0000
     59 C           4.6457    7.6576   14.9419 C.3     1  UNL1        0.0000
     60 H           4.7512    8.7365   15.0121 H       1  UNL1        0.0000
     61 H           5.5953    7.2020   15.2203 H       1  UNL1        0.0000
     62 H           3.8973    7.3439   15.6644 H       1  UNL1        0.0000
@<TRIPOS>BOND
     1    30    27    1
     2    29    27    1
     3    13    11    1
     4    27    26    1
     5    27    28    1
     6    25    26    1
     7    25     2    2
     8    12    11    1
     9     1     2    1
    10     1     9    1
    11    11     9    1
    12    11    14    1
    13     2     3    1
    14     9    10    1
    15     9     7    1
    16    14    15    1
    17    23    20    1
    18     3     4    1
    19     3     5    1
    20    22    20    1
    21     8     7    1
    22     7     5    1
    23     7    24    1
    24    20    15    1
    25    20    21    1
    26    15    24    1
    27    15    16    1
    28    19    16    1
    29     5     6    1
    30     5    31    1
    31    16    18    1
    32    16    17    1
    33    31    32    1
    34    37    35    1
    35    42    39    1
    36    50    49    1
    37    56    55    1
    38    35    38    1
    39    35    36    1
    40    35    33    1
    41    39    41    1
    42    39    40    1
    43    39    33    1
    44    54    53    1
    45    32    33    1
    46    32    53    1
    47    32    43    1
    48    33    34    1
    49    44    43    1
    50    49    51    1
    51    49    43    1
    52    49    52    1
    53    55    53    1
    54    55    58    1
    55    55    57    1
    56    53    59    1
    57    43    45    1
    58    59    60    1
    59    59    61    1
    60    59    62    1
    61    45    46    1
    62    45    48    1
    63    45    47    1
