@<TRIPOS>MOLECULE
18
 19 20 0 0 0
SMALL
GASTEIGER

@<TRIPOS>ATOM
      1 C           6.7608    5.2514   10.6403 C.3     1  UNL1       -0.0429
      2 H           7.1946    6.2278   10.8557 H       1  UNL1        0.0275
      3 H           6.0826    4.9759   11.4455 H       1  UNL1        0.0275
      4 H           6.1720    5.3414    9.7247 H       1  UNL1        0.0275
      5 C           7.8257    4.2076   10.4457 C.2     1  UNL1       -0.0638
      6 C           7.6509    2.8183   10.6086 C.2     1  UNL1       -0.0547
      7 H           6.7318    2.3308   10.8973 H       1  UNL1        0.0623
      8 C           8.7877    2.1572   10.0568 C.ar    1  UNL1       -0.0213
      9 C           9.0635    0.8023    9.8100 C.ar    1  UNL1       -0.0543
     10 H           8.3770    0.0387   10.1519 H       1  UNL1        0.0624
     11 C          10.1906    0.4719    9.0940 C.ar    1  UNL1       -0.0612
     12 H          10.4044   -0.5652    8.8794 H       1  UNL1        0.0618
     13 C          11.0647    1.4593    8.6164 C.ar    1  UNL1       -0.0614
     14 H          11.9295    1.1564    8.0440 H       1  UNL1        0.0618
     15 C          10.8308    2.7956    8.8442 C.ar    1  UNL1       -0.0574
     16 H          11.4945    3.5482    8.4430 H       1  UNL1        0.0621
     17 C           9.6879    3.1750    9.5633 C.ar    1  UNL1       -0.0323
     18 C           9.0946    4.4435    9.8498 C.3     1  UNL1        0.0163
     19 H           9.4172    5.3907    9.4403 H       1  UNL1        0.0403
@<TRIPOS>BOND
     1    14    13    1
     2    16    15    1
     3    13    15   ar
     4    13    11   ar
     5    15    17   ar
     6    12    11    1
     7    11     9   ar
     8    19    18    1
     9    17    18    1
    10    17     8   ar
    11     4     1    1
    12     9     8   ar
    13     9    10    1
    14    18     5    1
    15     8     6    1
    16     5     6    2
    17     5     1    1
    18     6     7    1
    19     1     2    1
    20     1     3    1
