@<TRIPOS>MOLECULE
6
 19 20 0 0 0
SMALL
GASTEIGER

@<TRIPOS>ATOM
      1 C          10.3845    5.0194   15.1479 C.3     1  UNL1       -0.0429
      2 H          10.4733    4.7175   16.1931 H       1  UNL1        0.0275
      3 H          10.0185    6.0432   15.1189 H       1  UNL1        0.0275
      4 H          11.3733    4.9825   14.6948 H       1  UNL1        0.0275
      5 C           9.4397    4.0960   14.4391 C.2     1  UNL1       -0.0638
      6 C           9.6599    2.7075   14.2439 C.3     1  UNL1        0.0163
      7 H          10.4961    2.1520   14.6487 H       1  UNL1        0.0403
      8 C           8.4289    2.1315   13.7856 C.ar    1  UNL1       -0.0323
      9 C           8.0187    0.8039   13.5822 C.ar    1  UNL1       -0.0574
     10 H           8.7297   -0.0078   13.6753 H       1  UNL1        0.0621
     11 C           6.6918    0.5481   13.3178 C.ar    1  UNL1       -0.0614
     12 H           6.3598   -0.4702   13.1763 H       1  UNL1        0.0618
     13 C           5.7492    1.5828   13.2606 C.ar    1  UNL1       -0.0612
     14 H           4.7115    1.3370   13.0868 H       1  UNL1        0.0618
     15 C           6.1191    2.8974   13.4378 C.ar    1  UNL1       -0.0543
     16 H           5.3759    3.6836   13.4199 H       1  UNL1        0.0624
     17 C           7.4642    3.2017   13.6822 C.ar    1  UNL1       -0.0213
     18 C           8.1324    4.4153   14.0195 C.2     1  UNL1       -0.0547
     19 H           7.6447    5.3687   14.1731 H       1  UNL1        0.0623
@<TRIPOS>BOND
     1    14    13    1
     2    12    11    1
     3    13    11   ar
     4    13    15   ar
     5    11     9   ar
     6    16    15    1
     7    15    17   ar
     8     9    10    1
     9     9     8   ar
    10    17     8   ar
    11    17    18    1
    12     8     6    1
    13    18    19    1
    14    18     5    2
    15     6     5    1
    16     6     7    1
    17     5     1    1
    18     4     1    1
    19     3     1    1
    20     1     2    1
