@<TRIPOS>MOLECULE
2
 16 15 0 0 0
SMALL
GASTEIGER

@<TRIPOS>ATOM
      1 SI         -1.3117    2.6027    5.0582 Si      1  UNL1        0.0000
      2 C          -1.9615    3.9831    6.1967 C.3     1  UNL1        0.0000
      3 H          -1.0658    4.4452    6.6169 H       1  UNL1        0.0000
      4 H          -2.4089    3.4274    7.0166 H       1  UNL1        0.0000
      5 C           0.5198    2.9222    4.5635 C.3     1  UNL1        0.0000
      6 H           0.9842    2.0013    4.2240 H       1  UNL1        0.0000
      7 H           1.0993    3.2825    5.4076 H       1  UNL1        0.0000
      8 H           0.6272    3.6436    3.7585 H       1  UNL1        0.0000
      9 C          -1.2693    0.9777    6.0711 C.3     1  UNL1        0.0000
     10 H          -0.8368    0.1611    5.5012 H       1  UNL1        0.0000
     11 H          -2.2655    0.6736    6.3741 H       1  UNL1        0.0000
     12 H          -0.6760    1.0951    6.9727 H       1  UNL1        0.0000
     13 C          -2.1908    2.1517    3.4131 C.3     1  UNL1        0.0000
     14 H          -1.7215    1.2701    2.9841 H       1  UNL1        0.0000
     15 H          -2.1273    2.9403    2.6698 H       1  UNL1        0.0000
     16 H          -3.2390    1.9149    3.5604 H       1  UNL1        0.0000
@<TRIPOS>BOND
     1    15    13    1
     2    14    13    1
     3    13    16    1
     4    13     1    1
     5     8     5    1
     6     6     5    1
     7     5     1    1
     8     5     7    1
     9     1     9    1
    10     1     2    1
    11    10     9    1
    12     9    11    1
    13     9    12    1
    14     2     3    1
    15     2     4    1
