@<TRIPOS>MOLECULE
1
 16 15 0 0 0
SMALL
GASTEIGER

@<TRIPOS>ATOM
      1 C          -4.7231    3.9832    5.5609 C.3     1  UNL1        0.0000
      2 SI         -5.3726    2.6027    6.6995 Si      1  UNL1        0.0000
      3 C          -7.2042    2.9223    7.1940 C.3     1  UNL1        0.0000
      4 H          -7.6685    2.0013    7.5335 H       1  UNL1        0.0000
      5 H          -7.7839    3.2825    6.3500 H       1  UNL1        0.0000
      6 H          -7.3116    3.6435    7.9990 H       1  UNL1        0.0000
      7 C          -5.4151    0.9778    5.6864 C.3     1  UNL1        0.0000
      8 H          -5.8475    0.1613    6.2565 H       1  UNL1        0.0000
      9 H          -4.4188    0.6736    5.3835 H       1  UNL1        0.0000
     10 H          -6.0084    1.0951    4.7848 H       1  UNL1        0.0000
     11 C          -4.4935    2.1518    8.3445 C.3     1  UNL1        0.0000
     12 H          -4.9629    1.2702    8.7735 H       1  UNL1        0.0000
     13 H          -4.5570    2.9404    9.0879 H       1  UNL1        0.0000
     14 H          -3.4453    1.9149    8.1973 H       1  UNL1        0.0000
     15 H          -5.6189    4.4451    5.1405 H       1  UNL1        0.0000
     16 H          -4.2754    3.4278    4.7409 H       1  UNL1        0.0000
@<TRIPOS>BOND
     1    16     1    1
     2    10     7    1
     3    15     1    1
     4     9     7    1
     5     1     2    1
     6     7     8    1
     7     7     2    1
     8     5     3    1
     9     2     3    1
    10     2    11    1
    11     3     4    1
    12     3     6    1
    13    14    11    1
    14    11    12    1
    15    11    13    1
