@<TRIPOS>MOLECULE
2
 16 15 0 0 0
SMALL
GASTEIGER

@<TRIPOS>ATOM
      1 SI          1.9735    0.8040    6.2660 Si      1  UNL1        0.0000
      2 C           1.8943    1.7110    4.6217 C.3     1  UNL1        0.0000
      3 H           2.1780    2.7595    4.7808 H       1  UNL1        0.0000
      4 H           0.8528    1.7247    4.2769 H       1  UNL1        0.0000
      5 C           3.8034    0.6430    6.8192 C.3     1  UNL1        0.0000
      6 H           4.4343    0.2940    6.0019 H       1  UNL1        0.0000
      7 H           3.9130   -0.0502    7.6481 H       1  UNL1        0.0000
      8 H           4.1919    1.6018    7.1477 H       1  UNL1        0.0000
      9 C           1.0395    1.6243    7.7305 C.3     1  UNL1        0.0000
     10 H           1.4107    2.6274    7.9168 H       1  UNL1        0.0000
     11 H           1.1531    1.0579    8.6502 H       1  UNL1        0.0000
     12 H          -0.0237    1.7036    7.5239 H       1  UNL1        0.0000
     13 C           1.2338   -0.9579    6.0579 C.3     1  UNL1        0.0000
     14 H           0.7894   -1.0814    5.0738 H       1  UNL1        0.0000
     15 H           0.4579   -1.1491    6.7921 H       1  UNL1        0.0000
     16 H           1.9895   -1.7282    6.1796 H       1  UNL1        0.0000
@<TRIPOS>BOND
     1     4     2    1
     2     2     3    1
     3     2     1    1
     4    14    13    1
     5     6     5    1
     6    13    16    1
     7    13     1    1
     8    13    15    1
     9     1     5    1
    10     1     9    1
    11     5     8    1
    12     5     7    1
    13    12     9    1
    14     9    10    1
    15     9    11    1
