@<TRIPOS>MOLECULE
7
 56 57 0 0 0
SMALL
GASTEIGER

@<TRIPOS>ATOM
      1 SI         10.5508    0.0891   10.8543 Si      1  UNL1        0.0000
      2 H          11.9581   -0.3463   10.5330 H       1  UNL1        0.0000
      3 SI          9.3092   -0.2010    8.0364 Si      1  UNL1        0.0000
      4 SI          7.6498   -1.1424   10.5880 Si      1  UNL1        0.0000
      5 SI         10.2595   -2.7499    9.7392 Si      1  UNL1        0.0000
      6 O          10.3611   -0.3836   12.4323 O.3     1  UNL1        0.0000
      7 C          10.7040    0.7766   13.1466 C.3     1  UNL1        0.0000
      8 H          11.7517    0.6723   13.4673 H       1  UNL1        0.0000
      9 C           9.8478    0.9967   14.3310 C.ar    1  UNL1        0.0000
     10 C           8.5261    0.5490   14.3622 C.ar    1  UNL1        0.0000
     11 H           8.1400    0.0235   13.5058 H       1  UNL1        0.0000
     12 C           7.7327    0.7760   15.4689 C.ar    1  UNL1        0.0000
     13 H           6.7111    0.4247   15.4743 H       1  UNL1        0.0000
     14 C           8.2361    1.4525   16.5681 C.ar    1  UNL1        0.0000
     15 H           7.6113    1.6367   17.4295 H       1  UNL1        0.0000
     16 C           9.5525    1.8824   16.5591 C.ar    1  UNL1        0.0000
     17 H           9.9604    2.3960   17.4183 H       1  UNL1        0.0000
     18 C          10.3524    1.6479   15.4579 C.ar    1  UNL1        0.0000
     19 H          11.3851    1.9655   15.4708 H       1  UNL1        0.0000
     20 C           9.4029   -1.0127    9.7814 C.3     1  UNL1        0.0000
     21 C           8.0901    1.2655    7.9484 C.3     1  UNL1        0.0000
     22 H           8.2556    1.9555    8.7690 H       1  UNL1        0.0000
     23 H           7.0559    0.9448    7.9883 H       1  UNL1        0.0000
     24 H           8.2223    1.8185    7.0227 H       1  UNL1        0.0000
     25 C           8.8064   -1.4043    6.6411 C.3     1  UNL1        0.0000
     26 H           8.6991   -0.8675    5.7035 H       1  UNL1        0.0000
     27 H           7.8578   -1.8830    6.8503 H       1  UNL1        0.0000
     28 H           9.5435   -2.1833    6.4878 H       1  UNL1        0.0000
     29 C          10.9875    0.5685    7.5553 C.3     1  UNL1        0.0000
     30 H          11.8142   -0.1184    7.6786 H       1  UNL1        0.0000
     31 H          11.1716    1.4268    8.1909 H       1  UNL1        0.0000
     32 H          10.9898    0.9088    6.5239 H       1  UNL1        0.0000
     33 C           6.3438   -1.8460    9.3808 C.3     1  UNL1        0.0000
     34 H           5.3947   -1.9682    9.8931 H       1  UNL1        0.0000
     35 H           6.6260   -2.8139    8.9873 H       1  UNL1        0.0000
     36 H           6.1738   -1.1852    8.5391 H       1  UNL1        0.0000
     37 C           6.9632    0.5566   11.1312 C.3     1  UNL1        0.0000
     38 H           6.2613    0.4546   11.9538 H       1  UNL1        0.0000
     39 H           6.4360    1.0538   10.3251 H       1  UNL1        0.0000
     40 H           7.7627    1.2183   11.4568 H       1  UNL1        0.0000
     41 C           7.6541   -2.3092   12.1008 C.3     1  UNL1        0.0000
     42 H           8.5168   -2.1258   12.7294 H       1  UNL1        0.0000
     43 H           7.6829   -3.3508   11.8000 H       1  UNL1        0.0000
     44 H           6.7625   -2.1730   12.7067 H       1  UNL1        0.0000
     45 C          11.8156   -2.7543    8.6226 C.3     1  UNL1        0.0000
     46 H          12.5667   -2.0590    8.9794 H       1  UNL1        0.0000
     47 H          11.5856   -2.4965    7.5958 H       1  UNL1        0.0000
     48 H          12.2667   -3.7421    8.6141 H       1  UNL1        0.0000
     49 C           9.1352   -4.1227    9.0290 C.3     1  UNL1        0.0000
     50 H           9.7013   -5.0421    8.9164 H       1  UNL1        0.0000
     51 H           8.7370   -3.8666    8.0558 H       1  UNL1        0.0000
     52 H           8.2991   -4.3365    9.6840 H       1  UNL1        0.0000
     53 C          10.8510   -3.3852   11.4425 C.3     1  UNL1        0.0000
     54 H          11.8175   -3.8744   11.3654 H       1  UNL1        0.0000
     55 H          10.1582   -4.1027   11.8682 H       1  UNL1        0.0000
     56 H          10.9486   -2.5685   12.1461 H       1  UNL1        0.0000
@<TRIPOS>BOND
     1    26    25    1
     2    28    25    1
     3    32    29    1
     4    25    27    1
     5    25     3    1
     6    24    21    1
     7    29    30    1
     8    29     3    1
     9    29    31    1
    10    47    45    1
    11    21    23    1
    12    21     3    1
    13    21    22    1
    14     3    20    1
    15    51    49    1
    16    36    33    1
    17    48    45    1
    18    45    46    1
    19    45     5    1
    20    50    49    1
    21    35    33    1
    22    49    52    1
    23    49     5    1
    24    33    34    1
    25    33     4    1
    26     5    20    1
    27     5    53    1
    28    20     4    1
    29    20     1    1
    30    39    37    1
    31     2     1    1
    32     4    37    1
    33     4    41    1
    34     1     6    1
    35    37    40    1
    36    37    38    1
    37    54    53    1
    38    53    55    1
    39    53    56    1
    40    43    41    1
    41    41    44    1
    42    41    42    1
    43     6     7    1
    44     7     8    1
    45     7     9    1
    46    11    10    1
    47     9    10   ar
    48     9    18   ar
    49    10    12   ar
    50    18    19    1
    51    18    16   ar
    52    12    13    1
    53    12    14   ar
    54    16    14   ar
    55    16    17    1
    56    14    15    1
    57     1     7    0
