@<TRIPOS>MOLECULE
6
 38 40 0 0 0
SMALL
GASTEIGER

@<TRIPOS>ATOM
      1 SI         11.1281    4.7499   13.5279 Si      1  UNL1        0.0000
      2 H          10.1897    3.6579   13.1861 H       1  UNL1        0.0000
      3 C          14.7564    4.7797   15.5106 C.ar    1  UNL1        0.0000
      4 C          13.5656    5.0803   14.7558 C.3     1  UNL1        0.0000
      5 H          13.6165    5.9956   14.1703 H       1  UNL1        0.0000
      6 C          12.5103    4.2385   14.6936 C.3     1  UNL1        0.0000
      7 C          11.8460    5.3417   11.8819 C.ar    1  UNL1        0.0000
      8 C          10.1287    6.1763   14.2688 C.ar    1  UNL1        0.0000
      9 C          15.9491    5.4856   15.3140 C.ar    1  UNL1        0.0000
     10 H          15.9599    6.3160   14.6216 H       1  UNL1        0.0000
     11 C          15.9264    3.3567   17.0857 C.ar    1  UNL1        0.0000
     12 H          15.9144    2.5358   17.7892 H       1  UNL1        0.0000
     13 C          14.7688    3.7130   16.4193 C.ar    1  UNL1        0.0000
     14 H          13.8137    3.2531   16.7268 H       1  UNL1        0.0000
     15 C          17.1021    4.0554   16.8607 C.ar    1  UNL1        0.0000
     16 H          18.0074    3.7748   17.3778 H       1  UNL1        0.0000
     17 C          10.5827    6.8697   15.3845 C.ar    1  UNL1        0.0000
     18 H          11.5327    6.5942   15.8203 H       1  UNL1        0.0000
     19 C          17.1037    5.1277   15.9796 C.ar    1  UNL1        0.0000
     20 H          18.0160    5.6822   15.8113 H       1  UNL1        0.0000
     21 C          12.3468    6.6303   11.7362 C.ar    1  UNL1        0.0000
     22 H          12.2527    7.3300   12.5558 H       1  UNL1        0.0000
     23 C          11.9525    4.4765   10.7994 C.ar    1  UNL1        0.0000
     24 H          11.5492    3.4764   10.8857 H       1  UNL1        0.0000
     25 C          12.9477    7.0372   10.5587 C.ar    1  UNL1        0.0000
     26 H          13.3319    8.0436   10.4661 H       1  UNL1        0.0000
     27 C          13.0563    6.1558    9.4964 C.ar    1  UNL1        0.0000
     28 H          13.5280    6.4693    8.5760 H       1  UNL1        0.0000
     29 C           9.8410    7.8968   15.9414 C.ar    1  UNL1        0.0000
     30 H          10.2097    8.4201   16.8132 H       1  UNL1        0.0000
     31 C           8.9112    6.5554   13.7141 C.ar    1  UNL1        0.0000
     32 H           8.5463    6.0349   12.8393 H       1  UNL1        0.0000
     33 C           8.6247    8.2525   15.3832 C.ar    1  UNL1        0.0000
     34 H           8.0396    9.0506   15.8176 H       1  UNL1        0.0000
     35 C          12.5493    4.8729    9.6168 C.ar    1  UNL1        0.0000
     36 H          12.6221    4.1833    8.7871 H       1  UNL1        0.0000
     37 C           8.1634    7.5826   14.2620 C.ar    1  UNL1        0.0000
     38 H           7.2174    7.8604   13.8185 H       1  UNL1        0.0000
@<TRIPOS>BOND
     1    28    27    1
     2    36    35    1
     3    27    35   ar
     4    27    25   ar
     5    35    23   ar
     6    26    25    1
     7    25    21   ar
     8    23    24    1
     9    23     7   ar
    10    21     7   ar
    11    21    22    1
    12     7     1    1
    13    32    31    1
    14     2     1    1
    15     1     8    1
    16     1     6    1
    17    31    37   ar
    18    31     8   ar
    19    38    37    1
    20     5     4    1
    21    37    33   ar
    22     8    17   ar
    23    10     9    1
    24     6     4    1
    25     4     3    1
    26     9     3   ar
    27     9    19   ar
    28    33    34    1
    29    33    29   ar
    30    17    18    1
    31    17    29   ar
    32     3    13   ar
    33    20    19    1
    34    29    30    1
    35    19    15   ar
    36    13    14    1
    37    13    11   ar
    38    15    11   ar
    39    15    16    1
    40    11    12    1
