@<TRIPOS>MOLECULE
3
 28 27 0 0 0
SMALL
GASTEIGER

@<TRIPOS>ATOM
      1 SI          7.4300    4.8246    8.4848 Si      1  UNL1        0.0000
      2 SI         10.7157    4.6075    8.6892 Si      1  UNL1        0.0000
      3 C           8.9946    3.7401    8.7427 C.3     1  UNL1        0.0000
      4 H           8.9089    3.3599    9.7667 H       1  UNL1        0.0000
      5 C           7.6164    6.2503    7.2303 C.3     1  UNL1        0.0000
      6 H           8.3780    6.9571    7.5413 H       1  UNL1        0.0000
      7 H           6.6808    6.7943    7.1455 H       1  UNL1        0.0000
      8 H           7.8763    5.8898    6.2416 H       1  UNL1        0.0000
      9 C           6.0001    3.6595    7.9713 C.3     1  UNL1        0.0000
     10 H           6.0208    2.7421    8.5606 H       1  UNL1        0.0000
     11 H           6.0705    3.3874    6.9200 H       1  UNL1        0.0000
     12 H           5.0313    4.1249    8.1239 H       1  UNL1        0.0000
     13 C           6.9732    5.5779   10.1820 C.3     1  UNL1        0.0000
     14 H           7.7524    6.2321   10.5549 H       1  UNL1        0.0000
     15 H           6.8034    4.8088   10.9284 H       1  UNL1        0.0000
     16 H           6.0638    6.1640   10.1053 H       1  UNL1        0.0000
     17 C          11.9952    3.3933    9.4325 C.3     1  UNL1        0.0000
     18 H          12.1382    2.5250    8.7921 H       1  UNL1        0.0000
     19 H          11.6731    3.0307   10.4050 H       1  UNL1        0.0000
     20 H          12.9623    3.8685    9.5655 H       1  UNL1        0.0000
     21 C          10.6757    6.1610    9.7992 C.3     1  UNL1        0.0000
     22 H           9.9951    6.9137    9.4193 H       1  UNL1        0.0000
     23 H          11.6623    6.6080    9.8526 H       1  UNL1        0.0000
     24 H          10.3726    5.9197   10.8119 H       1  UNL1        0.0000
     25 C          11.2551    5.1167    6.9287 C.3     1  UNL1        0.0000
     26 H          10.4831    5.6853    6.4213 H       1  UNL1        0.0000
     27 H          11.4799    4.2461    6.3158 H       1  UNL1        0.0000
     28 H          12.1478    5.7334    6.9650 H       1  UNL1        0.0000
@<TRIPOS>BOND
     1     8     5    1
     2    27    25    1
     3    26    25    1
     4    11     9    1
     5    25    28    1
     6    25     2    1
     7     7     5    1
     8     5     6    1
     9     5     1    1
    10     9    12    1
    11     9     1    1
    12     9    10    1
    13     1     3    1
    14     1    13    1
    15     2     3    1
    16     2    17    1
    17     2    21    1
    18     3     4    1
    19    18    17    1
    20    22    21    1
    21    17    20    1
    22    17    19    1
    23    21    23    1
    24    21    24    1
    25    16    13    1
    26    13    14    1
    27    13    15    1
