@<TRIPOS>MOLECULE
6
 11 11 0 0 0
SMALL
GASTEIGER

@<TRIPOS>ATOM
      1 F           0.8082    0.1451    6.0415 F       1  UNL1       -0.2016
      2 F          -0.5871   -2.0179    7.0314 F       1  UNL1       -0.1993
      3 F          -1.7963   -3.7535    5.2806 F       1  UNL1       -0.1993
      4 F          -1.5811   -3.3128    2.5883 F       1  UNL1       -0.1993
      5 F          -0.2107   -1.2000    1.6542 F       1  UNL1       -0.2016
      6 C           0.3682   -0.4562    3.8275 C.ar    1  UNL1        0.0641
      7 C           0.2246   -0.7562    5.1828 C.ar    1  UNL1        0.1720
      8 C          -0.4740   -1.8277    5.7058 C.ar    1  UNL1        0.1970
      9 C          -1.0897   -2.7085    4.8203 C.ar    1  UNL1        0.1991
     10 C          -0.9773   -2.4798    3.4558 C.ar    1  UNL1        0.1970
     11 C          -0.2611   -1.3802    2.9986 C.ar    1  UNL1        0.1720
@<TRIPOS>BOND
     1     5    11    1
     2     4    10    1
     3    11    10   ar
     4    11     6   ar
     5    10     9   ar
     6     6     7   ar
     7     9     3    1
     8     9     8   ar
     9     7     8   ar
    10     7     1    1
    11     8     2    1
