@<TRIPOS>MOLECULE
2
 14 13 0 0 0
SMALL
GASTEIGER

@<TRIPOS>ATOM
      1 SI          2.7189    4.1880    5.4909 Si      1  UNL1        0.0000
      2 C           1.8373    2.8339    4.5726 C.3     1  UNL1        0.0000
      3 C           3.7959    3.4992    6.9093 C.3     1  UNL1        0.0000
      4 C           1.4555    5.4332    6.2120 C.3     1  UNL1        0.0000
      5 C           3.8545    5.1085    4.2527 C.3     1  UNL1        0.0000
      6 H           3.2212    2.8249    7.5353 H       1  UNL1        0.0000
      7 H           4.1834    4.2934    7.5409 H       1  UNL1        0.0000
      8 H           4.6394    2.9423    6.5141 H       1  UNL1        0.0000
      9 H           0.8241    5.8498    5.4333 H       1  UNL1        0.0000
     10 H           1.9538    6.2588    6.7117 H       1  UNL1        0.0000
     11 H           0.8081    4.9496    6.9363 H       1  UNL1        0.0000
     12 H           4.5676    4.4216    3.8073 H       1  UNL1        0.0000
     13 H           4.4143    5.9004    4.7410 H       1  UNL1        0.0000
     14 H           3.2793    5.5573    3.4489 H       1  UNL1        0.0000
@<TRIPOS>BOND
     1    14     5    1
     2    12     5    1
     3     5    13    1
     4     5     1    1
     5     2     1    1
     6     9     4    1
     7     1     4    1
     8     1     3    1
     9     4    10    1
    10     4    11    1
    11     8     3    1
    12     3     6    1
    13     3     7    1
