@<TRIPOS>MOLECULE
2
 16 15 0 0 0
SMALL
GASTEIGER

@<TRIPOS>ATOM
      1 SI          2.9717    2.4993   10.5216 Si      1  UNL1        0.0000
      2 C           3.9153    3.4319   11.8732 C.3     1  UNL1        0.0000
      3 C           1.1422    2.2490   10.9836 C.3     1  UNL1        0.0000
      4 C           3.0535    3.5095    8.8839 C.3     1  UNL1        0.0000
      5 C           3.7906    0.8043   10.1934 C.3     1  UNL1        0.0000
      6 H           4.6695    2.7908   12.3274 H       1  UNL1        0.0000
      7 H           3.2429    3.7409   12.6692 H       1  UNL1        0.0000
      8 H           1.0434    1.6688   11.8950 H       1  UNL1        0.0000
      9 H           0.6102    1.7184   10.2004 H       1  UNL1        0.0000
     10 H           0.6399    3.1985   11.1388 H       1  UNL1        0.0000
     11 H           2.0571    3.7689    8.5446 H       1  UNL1        0.0000
     12 H           3.5233    2.9389    8.0901 H       1  UNL1        0.0000
     13 H           3.6076    4.4455    8.9982 H       1  UNL1        0.0000
     14 H           4.8455    0.8936    9.9502 H       1  UNL1        0.0000
     15 H           3.3071    0.2897    9.3688 H       1  UNL1        0.0000
     16 H           3.7122    0.1613   11.0639 H       1  UNL1        0.0000
@<TRIPOS>BOND
     1    12     4    1
     2    11     4    1
     3     4    13    1
     4     4     1    1
     5    15     5    1
     6    14     5    1
     7     5     1    1
     8     5    16    1
     9     9     3    1
    10     1     3    1
    11     1     2    1
    12     3    10    1
    13     3     8    1
    14     2     6    1
    15     2     7    1
