@<TRIPOS>MOLECULE
1
 21 20 0 0 0
SMALL
GASTEIGER

@<TRIPOS>ATOM
      1 C           4.3312   15.7416    3.9562 C.1     1  UNL1        0.0000
      2 C           3.2748   15.6360    4.5680 C.1     1  UNL1        0.0000
      3 C           2.1362   15.4786    5.2583 C.1     1  UNL1        0.0000
      4 C           1.0959   15.3247    5.8888 C.1     1  UNL1        0.0000
      5 C          -0.0334   15.1427    6.5715 C.1     1  UNL1        0.0000
      6 C          -1.0715   14.9659    7.1986 C.1     1  UNL1        0.0000
      7 C          -2.2092   14.7597    7.8772 C.1     1  UNL1        0.0000
      8 C          -3.2443   14.5652    8.4943 C.1     1  UNL1        0.0000
      9 SI         -4.8136   14.2551    9.4112 Si      1  UNL1        0.0000
     10 C          -5.6146   15.9249    9.8715 C.3     1  UNL1        0.0000
     11 H          -4.9571   16.5153   10.5029 H       1  UNL1        0.0000
     12 H          -6.5478   15.7830   10.4098 H       1  UNL1        0.0000
     13 H          -5.8322   16.5136    8.9853 H       1  UNL1        0.0000
     14 C          -5.9974   13.2553    8.2970 C.3     1  UNL1        0.0000
     15 H          -6.2164   13.7899    7.3775 H       1  UNL1        0.0000
     16 H          -6.9421   13.0579    8.7963 H       1  UNL1        0.0000
     17 H          -5.5635   12.2981    8.0232 H       1  UNL1        0.0000
     18 C          -4.4283   13.2639   10.9959 C.3     1  UNL1        0.0000
     19 H          -3.9588   12.3136   10.7596 H       1  UNL1        0.0000
     20 H          -5.3315   13.0533   11.5622 H       1  UNL1        0.0000
     21 H          -3.7517   13.8101   11.6464 H       1  UNL1        0.0000
@<TRIPOS>BOND
     1     1     2    3
     2     2     3    1
     3     3     4    3
     4     4     5    1
     5     5     6    3
     6     6     7    1
     7    15    14    1
     8     7     8    3
     9    17    14    1
    10    14    16    1
    11    14     9    1
    12     8     9    1
    13    13    10    1
    14     9    10    1
    15     9    18    1
    16    10    12    1
    17    10    11    1
    18    19    18    1
    19    18    20    1
    20    18    21    1
