@<TRIPOS>MOLECULE
1
 4 3 0 0 0
SMALL
GASTEIGER

@<TRIPOS>ATOM
      1 C          12.0844    3.1511    2.1686 C.3     1  UNL1       -0.0681
      2 H          12.0577    3.0553    3.2590 H       1  UNL1        0.0227
      3 H          13.0441    2.7420    1.8441 H       1  UNL1        0.0227
      4 H          11.3317    2.4593    1.7862 H       1  UNL1        0.0227
@<TRIPOS>BOND
     1     4     1    1
     2     3     1    1
     3     1     2    1
