@<TRIPOS>MOLECULE
2
 16 15 0 0 0
SMALL
GASTEIGER

@<TRIPOS>ATOM
      1 SI         -1.9467    4.7014    6.5328 Si      1  UNL1        0.0000
      2 C          -0.1289    5.1067    6.1052 C.3     1  UNL1        0.0000
      3 C          -2.8156    3.5623    5.2656 C.3     1  UNL1        0.0000
      4 C          -2.8967    6.3654    6.5829 C.3     1  UNL1        0.0000
      5 C          -1.9823    3.9183    8.2745 C.3     1  UNL1        0.0000
      6 H           0.3685    5.4289    7.0225 H       1  UNL1        0.0000
      7 H          -0.0795    5.9417    5.4072 H       1  UNL1        0.0000
      8 H          -3.8700    3.4478    5.5009 H       1  UNL1        0.0000
      9 H          -2.3683    2.5701    5.2654 H       1  UNL1        0.0000
     10 H          -2.7498    3.9551    4.2534 H       1  UNL1        0.0000
     11 H          -2.9677    6.8256    5.6026 H       1  UNL1        0.0000
     12 H          -2.4114    7.0759    7.2439 H       1  UNL1        0.0000
     13 H          -3.9075    6.2175    6.9470 H       1  UNL1        0.0000
     14 H          -2.9704    3.5423    8.5200 H       1  UNL1        0.0000
     15 H          -1.7090    4.6437    9.0354 H       1  UNL1        0.0000
     16 H          -1.2863    3.0860    8.3409 H       1  UNL1        0.0000
@<TRIPOS>BOND
     1    10     3    1
     2     9     3    1
     3     3     8    1
     4     3     1    1
     5     7     2    1
     6    11     4    1
     7     2     1    1
     8     2     6    1
     9     1     4    1
    10     1     5    1
    11     4    13    1
    12     4    12    1
    13     5    16    1
    14     5    14    1
    15     5    15    1
