@<TRIPOS>MOLECULE
2
 16 15 0 0 0
SMALL
GASTEIGER

@<TRIPOS>ATOM
      1 SI          0.7194    4.4278    4.7447 Si      1  UNL1        0.0000
      2 C           1.8663    4.1577    3.2522 C.3     1  UNL1        0.0000
      3 C          -0.6468    5.6562    4.2040 C.3     1  UNL1        0.0000
      4 C           1.6264    5.1952    6.2394 C.3     1  UNL1        0.0000
      5 C          -0.0986    2.7624    5.1953 C.3     1  UNL1        0.0000
      6 H           2.1432    5.1255    2.8388 H       1  UNL1        0.0000
      7 H           1.2898    3.6483    2.4832 H       1  UNL1        0.0000
      8 H          -1.3696    5.8054    4.9984 H       1  UNL1        0.0000
      9 H          -1.1852    5.2928    3.3353 H       1  UNL1        0.0000
     10 H          -0.2331    6.6264    3.9504 H       1  UNL1        0.0000
     11 H           2.1362    6.1140    5.9627 H       1  UNL1        0.0000
     12 H           2.3695    4.5101    6.6362 H       1  UNL1        0.0000
     13 H           0.9351    5.4344    7.0417 H       1  UNL1        0.0000
     14 H          -0.7357    2.8523    6.0693 H       1  UNL1        0.0000
     15 H           0.6541    2.0096    5.4093 H       1  UNL1        0.0000
     16 H          -0.7140    2.3970    4.3784 H       1  UNL1        0.0000
@<TRIPOS>BOND
     1     7     2    1
     2     6     2    1
     3     2     1    1
     4     9     3    1
     5    10     3    1
     6     3     1    1
     7     3     8    1
     8    16     5    1
     9     1     5    1
    10     1     4    1
    11     5    15    1
    12     5    14    1
    13    11     4    1
    14     4    12    1
    15     4    13    1
