@<TRIPOS>MOLECULE
2
 16 15 0 0 0
SMALL
GASTEIGER

@<TRIPOS>ATOM
      1 SI         -1.1355    1.9791    2.7049 Si      1  UNL1        0.0000
      2 C          -1.2778    0.2794    1.8709 C.3     1  UNL1        0.0000
      3 C           0.6395    2.5904    3.0592 C.3     1  UNL1        0.0000
      4 C          -2.0740    1.8967    4.3747 C.3     1  UNL1        0.0000
      5 C          -1.9797    3.2915    1.5983 C.3     1  UNL1        0.0000
      6 H          -2.3085    0.1455    1.5542 H       1  UNL1        0.0000
      7 H          -1.0601   -0.5163    2.5774 H       1  UNL1        0.0000
      8 H           0.6210    3.5824    3.5019 H       1  UNL1        0.0000
      9 H           1.2179    2.6516    2.1414 H       1  UNL1        0.0000
     10 H           1.1708    1.9375    3.7443 H       1  UNL1        0.0000
     11 H          -1.6570    1.1391    5.0291 H       1  UNL1        0.0000
     12 H          -3.1229    1.6613    4.2285 H       1  UNL1        0.0000
     13 H          -2.0223    2.8472    4.8944 H       1  UNL1        0.0000
     14 H          -2.9972    3.0127    1.3395 H       1  UNL1        0.0000
     15 H          -1.4201    3.4215    0.6772 H       1  UNL1        0.0000
     16 H          -2.0252    4.2554    2.0962 H       1  UNL1        0.0000
@<TRIPOS>BOND
     1    15     5    1
     2    14     5    1
     3     6     2    1
     4     5    16    1
     5     5     1    1
     6     2     7    1
     7     2     1    1
     8     9     3    1
     9     1     3    1
    10     1     4    1
    11     3     8    1
    12     3    10    1
    13    12     4    1
    14     4    13    1
    15     4    11    1
