@<TRIPOS>MOLECULE
2
 16 15 0 0 0
SMALL
GASTEIGER

@<TRIPOS>ATOM
      1 SI          1.2148   -2.0065   -2.5051 Si      1  UNL1        0.0000
      2 C           0.6786   -1.9348   -0.6842 C.3     1  UNL1        0.0000
      3 C           0.1232   -3.1918   -3.5428 C.3     1  UNL1        0.0000
      4 C           1.1482   -0.3137   -3.3911 C.3     1  UNL1        0.0000
      5 C           3.0025   -2.6961   -2.6242 C.3     1  UNL1        0.0000
      6 H           1.4946   -2.3286   -0.0784 H       1  UNL1        0.0000
      7 H          -0.1716   -2.5959   -0.5210 H       1  UNL1        0.0000
      8 H           0.5073   -3.2714   -4.5551 H       1  UNL1        0.0000
      9 H          -0.8993   -2.8333   -3.6103 H       1  UNL1        0.0000
     10 H           0.1051   -4.1932   -3.1244 H       1  UNL1        0.0000
     11 H           1.4675    0.5089   -2.7557 H       1  UNL1        0.0000
     12 H           0.1323   -0.1055   -3.7117 H       1  UNL1        0.0000
     13 H           1.7734   -0.3052   -4.2802 H       1  UNL1        0.0000
     14 H           3.7275   -2.0691   -2.1159 H       1  UNL1        0.0000
     15 H           3.3140   -2.7783   -3.6608 H       1  UNL1        0.0000
     16 H           3.0669   -3.6882   -2.1879 H       1  UNL1        0.0000
@<TRIPOS>BOND
     1     8     3    1
     2    13     4    1
     3    12     4    1
     4    15     5    1
     5     9     3    1
     6     3    10    1
     7     3     1    1
     8     4    11    1
     9     4     1    1
    10     5     1    1
    11     5    16    1
    12     5    14    1
    13     1     2    1
    14     2     7    1
    15     2     6    1
