@<TRIPOS>MOLECULE
2
 16 15 0 0 0
SMALL
GASTEIGER

@<TRIPOS>ATOM
      1 SI          1.6112    5.5419    7.5418 Si      1  UNL1        0.0000
      2 C           1.0145    4.3411    8.8888 C.3     1  UNL1        0.0000
      3 C           3.2078    6.4768    8.0393 C.3     1  UNL1        0.0000
      4 C           0.3202    6.9448    7.3258 C.3     1  UNL1        0.0000
      5 C           1.8701    4.7072    5.8357 C.3     1  UNL1        0.0000
      6 H          -0.0788    4.3267    8.8517 H       1  UNL1        0.0000
      7 H           1.2832    4.7708    9.8565 H       1  UNL1        0.0000
      8 H           3.0550    7.0077    8.9738 H       1  UNL1        0.0000
      9 H           3.4611    7.2155    7.2841 H       1  UNL1        0.0000
     10 H           4.0636    5.8262    8.1639 H       1  UNL1        0.0000
     11 H           0.2194    7.5165    8.2434 H       1  UNL1        0.0000
     12 H          -0.6609    6.5604    7.0711 H       1  UNL1        0.0000
     13 H           0.6199    7.6343    6.5429 H       1  UNL1        0.0000
     14 H           2.4157    5.3572    5.1573 H       1  UNL1        0.0000
     15 H           0.9185    4.4751    5.3672 H       1  UNL1        0.0000
     16 H           2.4261    3.7765    5.9283 H       1  UNL1        0.0000
@<TRIPOS>BOND
     1    14     5    1
     2    15     5    1
     3     5    16    1
     4     5     1    1
     5    13     4    1
     6    12     4    1
     7     9     3    1
     8     4     1    1
     9     4    11    1
    10     1     3    1
    11     1     2    1
    12     3    10    1
    13     3     8    1
    14     6     2    1
    15     2     7    1
