@<TRIPOS>MOLECULE
2
 16 15 0 0 0
SMALL
GASTEIGER

@<TRIPOS>ATOM
      1 SI         -0.8315    0.3879   10.8262 Si      1  UNL1        0.0000
      2 C           0.5038    0.2928    9.4809 C.3     1  UNL1        0.0000
      3 C          -0.5149   -0.7459   12.3380 C.3     1  UNL1        0.0000
      4 C          -1.0297    2.1532   11.5378 C.3     1  UNL1        0.0000
      5 C          -2.5284   -0.2004   10.1403 C.3     1  UNL1        0.0000
      6 H           0.0327   -0.0963    8.5710 H       1  UNL1        0.0000
      7 H           1.2658   -0.4379    9.7736 H       1  UNL1        0.0000
      8 H           0.3678   -0.4360   12.8874 H       1  UNL1        0.0000
      9 H          -0.3888   -1.7850   12.0495 H       1  UNL1        0.0000
     10 H          -1.3574   -0.7013   13.0222 H       1  UNL1        0.0000
     11 H          -2.0647    2.3830   11.7754 H       1  UNL1        0.0000
     12 H          -0.6634    2.9070   10.8420 H       1  UNL1        0.0000
     13 H          -0.4603    2.2410   12.4583 H       1  UNL1        0.0000
     14 H          -2.4545   -1.2021    9.7270 H       1  UNL1        0.0000
     15 H          -2.9215    0.4443    9.3611 H       1  UNL1        0.0000
     16 H          -3.2674   -0.2342   10.9350 H       1  UNL1        0.0000
@<TRIPOS>BOND
     1     6     2    1
     2    15     5    1
     3     2     7    1
     4     2     1    1
     5    14     5    1
     6     5     1    1
     7     5    16    1
     8     1     4    1
     9     1     3    1
    10    12     4    1
    11     4    11    1
    12     4    13    1
    13     9     3    1
    14     3     8    1
    15     3    10    1
