@<TRIPOS>MOLECULE
2
 16 15 0 0 0
SMALL
GASTEIGER

@<TRIPOS>ATOM
      1 SI          5.3254    2.8990    8.1558 Si      1  UNL1        0.0000
      2 C           3.8051    1.8020    7.8811 C.3     1  UNL1        0.0000
      3 C           5.6007    4.0205    6.6272 C.3     1  UNL1        0.0000
      4 C           6.9467    1.8764    8.2952 C.3     1  UNL1        0.0000
      5 C           5.1645    3.9424    9.7498 C.3     1  UNL1        0.0000
      6 H           4.0569    0.7700    8.1399 H       1  UNL1        0.0000
      7 H           3.6187    1.8052    6.8048 H       1  UNL1        0.0000
      8 H           4.6970    4.5345    6.3205 H       1  UNL1        0.0000
      9 H           5.9410    3.4250    5.7847 H       1  UNL1        0.0000
     10 H           6.3607    4.7721    6.8194 H       1  UNL1        0.0000
     11 H           7.8117    2.5116    8.1298 H       1  UNL1        0.0000
     12 H           6.9768    1.0873    7.5496 H       1  UNL1        0.0000
     13 H           7.0676    1.4169    9.2711 H       1  UNL1        0.0000
     14 H           5.7848    4.8336    9.7225 H       1  UNL1        0.0000
     15 H           5.4617    3.3734   10.6274 H       1  UNL1        0.0000
     16 H           4.1299    4.2506    9.8837 H       1  UNL1        0.0000
@<TRIPOS>BOND
     1     9     3    1
     2     8     3    1
     3     3    10    1
     4     3     1    1
     5     7     2    1
     6    12     4    1
     7     2     6    1
     8     2     1    1
     9    11     4    1
    10     1     4    1
    11     1     5    1
    12     4    13    1
    13    14     5    1
    14     5    16    1
    15     5    15    1
