@<TRIPOS>MOLECULE
2
 34 34 0 0 0
SMALL
GASTEIGER

@<TRIPOS>ATOM
      1 SI          9.8494   11.7779    2.8779 Si      1  UNL1        0.0000
      2 C          11.1666   10.6002    2.2077 C.3     1  UNL1        0.0000
      3 C          12.6050   10.8783    2.2748 C.2     1  UNL1        0.0000
      4 C          13.2014   10.4370    1.1134 C.2     1  UNL1        0.0000
      5 C          12.2004    9.8950    0.2565 C.2     1  UNL1        0.0000
      6 C          10.9768    9.9899    0.8851 C.2     1  UNL1        0.0000
      7 C          13.3090   11.5377    3.4280 C.3     1  UNL1        0.0000
      8 H          14.2666   11.0536    3.6258 H       1  UNL1        0.0000
      9 H          12.7091   11.4907    4.3361 H       1  UNL1        0.0000
     10 H          13.5109   12.5884    3.2088 H       1  UNL1        0.0000
     11 C          14.6540   10.4876    0.7587 C.3     1  UNL1        0.0000
     12 H          15.0468    9.4823    0.5971 H       1  UNL1        0.0000
     13 H          15.2342   10.9633    1.5450 H       1  UNL1        0.0000
     14 H          14.8015   11.0516   -0.1629 H       1  UNL1        0.0000
     15 C          12.4898    9.3222   -1.0954 C.3     1  UNL1        0.0000
     16 H          12.9705   10.0684   -1.7287 H       1  UNL1        0.0000
     17 H          11.5782    8.9945   -1.5892 H       1  UNL1        0.0000
     18 H          13.1683    8.4708   -1.0170 H       1  UNL1        0.0000
     19 C           9.6473    9.6323    0.2795 C.3     1  UNL1        0.0000
     20 H           9.3333   10.4005   -0.4305 H       1  UNL1        0.0000
     21 H           8.8755    9.5413    1.0424 H       1  UNL1        0.0000
     22 H           9.7066    8.6899   -0.2676 H       1  UNL1        0.0000
     23 C           9.1227   12.8981    1.5049 C.3     1  UNL1        0.0000
     24 H           9.9162   13.3534    0.9212 H       1  UNL1        0.0000
     25 H           8.5211   13.6976    1.9262 H       1  UNL1        0.0000
     26 H           8.4928   12.3419    0.8195 H       1  UNL1        0.0000
     27 C          10.4255   12.9751    4.2547 C.3     1  UNL1        0.0000
     28 H          10.7474   12.4613    5.1547 H       1  UNL1        0.0000
     29 H           9.6042   13.6277    4.5345 H       1  UNL1        0.0000
     30 H          11.2415   13.6045    3.9198 H       1  UNL1        0.0000
     31 C           8.3870   10.7823    3.6505 C.3     1  UNL1        0.0000
     32 H           7.7178   10.3954    2.8866 H       1  UNL1        0.0000
     33 H           7.7904   11.4167    4.2995 H       1  UNL1        0.0000
     34 H           8.7420    9.9401    4.2521 H       1  UNL1        0.0000
@<TRIPOS>BOND
     1    16    15    1
     2    17    15    1
     3    15    18    1
     4    15     5    1
     5    20    19    1
     6    22    19    1
     7    14    11    1
     8     5     6    2
     9     5     4    1
    10    19     6    1
    11    19    21    1
    12    12    11    1
    13    11     4    1
    14    11    13    1
    15    26    23    1
    16     6     2    1
    17    24    23    1
    18     4     3    2
    19    23    25    1
    20    23     1    1
    21     2     3    1
    22     2     1    1
    23     3     7    1
    24     1    31    1
    25     1    27    1
    26    32    31    1
    27    10     7    1
    28     7     8    1
    29     7     9    1
    30    31    34    1
    31    31    33    1
    32    30    27    1
    33    27    29    1
    34    27    28    1
