@<TRIPOS>MOLECULE
3
 63 66 0 0 0
SMALL
GASTEIGER

@<TRIPOS>ATOM
      1 P          14.9170    5.4042    4.2810 P.3     1  UNL1        0.0000
      2 SI         18.7577    9.1803    3.1131 Si      1  UNL1        0.0000
      3 C          17.2902    2.4639    4.4318 C.1     1  UNL1        0.0000
      4 C          16.7913    3.4751    3.9832 C.1     1  UNL1        0.0000
      5 C          16.4033    4.7507    3.4058 C.3     1  UNL1        0.0000
      6 H          17.1820    5.5073    3.6067 H       1  UNL1        0.0000
      7 C          16.1332    4.7257    1.9263 C.ar    1  UNL1        0.0000
      8 C          15.4419    3.6792    1.3363 C.ar    1  UNL1        0.0000
      9 H          15.0842    2.8677    1.9544 H       1  UNL1        0.0000
     10 C          15.2183    3.6680   -0.0302 C.ar    1  UNL1        0.0000
     11 H          14.6777    2.8496   -0.4803 H       1  UNL1        0.0000
     12 C          15.6856    4.7075   -0.8197 C.ar    1  UNL1        0.0000
     13 H          15.5127    4.6959   -1.8849 H       1  UNL1        0.0000
     14 C          16.3723    5.7600   -0.2460 C.ar    1  UNL1        0.0000
     15 H          16.7382    6.5755   -0.8518 H       1  UNL1        0.0000
     16 C          16.5998    5.7821    1.1298 C.ar    1  UNL1        0.0000
     17 C          17.2904    6.8639    1.7274 C.1     1  UNL1        0.0000
     18 C          17.8690    7.7704    2.2823 C.1     1  UNL1        0.0000
     19 C          18.3725    9.0709    4.9803 C.3     1  UNL1        0.0000
     20 H          18.4673    8.0576    5.3608 H       1  UNL1        0.0000
     21 H          17.3636    9.4099    5.1941 H       1  UNL1        0.0000
     22 H          19.0512    9.6975    5.5513 H       1  UNL1        0.0000
     23 C          18.0793   10.7979    2.3777 C.3     1  UNL1        0.0000
     24 H          16.9969   10.8438    2.4558 H       1  UNL1        0.0000
     25 H          18.3354   10.8896    1.3267 H       1  UNL1        0.0000
     26 H          18.4855   11.6648    2.8906 H       1  UNL1        0.0000
     27 C          20.6236    8.9906    2.7843 C.3     1  UNL1        0.0000
     28 H          21.0230    8.0759    3.2129 H       1  UNL1        0.0000
     29 H          21.1794    9.8216    3.2097 H       1  UNL1        0.0000
     30 H          20.8313    8.9719    1.7184 H       1  UNL1        0.0000
     31 C          15.3077    5.6531    6.0249 C.ar    1  UNL1        0.0000
     32 C          16.6112    5.5936    6.5043 C.ar    1  UNL1        0.0000
     33 H          17.4307    5.3299    5.8538 H       1  UNL1        0.0000
     34 C          16.8558    5.8508    7.8421 C.ar    1  UNL1        0.0000
     35 H          17.8678    5.7995    8.2136 H       1  UNL1        0.0000
     36 C          15.8107    6.1663    8.6945 C.ar    1  UNL1        0.0000
     37 H          16.0079    6.3677    9.7361 H       1  UNL1        0.0000
     38 C          14.5090    6.2162    8.2168 C.ar    1  UNL1        0.0000
     39 H          13.6953    6.4560    8.8842 H       1  UNL1        0.0000
     40 C          14.2524    5.9590    6.8835 C.ar    1  UNL1        0.0000
     41 H          13.2412    5.9951    6.4992 H       1  UNL1        0.0000
     42 C          13.5112    4.2793    4.1672 C.ar    1  UNL1        0.0000
     43 C          13.7166    2.9245    4.4238 C.ar    1  UNL1        0.0000
     44 H          14.7148    2.5709    4.6471 H       1  UNL1        0.0000
     45 C          12.6481    2.0493    4.3623 C.ar    1  UNL1        0.0000
     46 H          12.8046    0.9968    4.5456 H       1  UNL1        0.0000
     47 C          11.3773    2.5196    4.0688 C.ar    1  UNL1        0.0000
     48 H          10.5455    1.8335    4.0252 H       1  UNL1        0.0000
     49 C          11.1710    3.8703    3.8365 C.ar    1  UNL1        0.0000
     50 H          10.1797    4.2361    3.6166 H       1  UNL1        0.0000
     51 C          12.2330    4.7552    3.8852 C.ar    1  UNL1        0.0000
     52 H          12.0726    5.8090    3.7044 H       1  UNL1        0.0000
     53 C          14.4875    6.9892    3.5420 C.ar    1  UNL1        0.0000
     54 C          14.7837    8.1765    4.2033 C.ar    1  UNL1        0.0000
     55 H          15.1920    8.1458    5.2035 H       1  UNL1        0.0000
     56 C          14.5441    9.3852    3.5766 C.ar    1  UNL1        0.0000
     57 H          14.7626   10.3082    4.0917 H       1  UNL1        0.0000
     58 C          14.0250    9.4124    2.2921 C.ar    1  UNL1        0.0000
     59 H          13.8441   10.3576    1.8041 H       1  UNL1        0.0000
     60 C          13.7317    8.2289    1.6323 C.ar    1  UNL1        0.0000
     61 H          13.3244    8.2523    0.6332 H       1  UNL1        0.0000
     62 C          13.9604    7.0149    2.2511 C.ar    1  UNL1        0.0000
     63 H          13.7278    6.0896    1.7415 H       1  UNL1        0.0000
@<TRIPOS>BOND
     1    13    12    1
     2    15    14    1
     3    12    14   ar
     4    12    10   ar
     5    11    10    1
     6    14    16   ar
     7    10     8   ar
     8    61    60    1
     9    16    17    1
    10    16     7   ar
    11    25    23    1
    12     8     7   ar
    13     8     9    1
    14    60    62   ar
    15    60    58   ar
    16    30    27    1
    17    17    18    3
    18    63    62    1
    19    59    58    1
    20     7     5    1
    21    62    53   ar
    22    18     2    1
    23    58    56   ar
    24    23    24    1
    25    23    26    1
    26    23     2    1
    27    27     2    1
    28    27    29    1
    29    27    28    1
    30     2    19    1
    31     5     6    1
    32     5     4    1
    33     5     1    1
    34    53    54   ar
    35    53     1    1
    36    56    57    1
    37    56    54   ar
    38    50    49    1
    39    52    51    1
    40    49    51   ar
    41    49    47   ar
    42    51    42   ar
    43     4     3    3
    44    48    47    1
    45    47    45   ar
    46    42     1    1
    47    42    43   ar
    48    54    55    1
    49     1    31    1
    50    45    43   ar
    51    45    46    1
    52    43    44    1
    53    19    21    1
    54    19    20    1
    55    19    22    1
    56    33    32    1
    57    31    32   ar
    58    31    40   ar
    59    41    40    1
    60    32    34   ar
    61    40    38   ar
    62    34    35    1
    63    34    36   ar
    64    38    36   ar
    65    38    39    1
    66    36    37    1
