@<TRIPOS>MOLECULE
1
 14 14 0 0 0
SMALL
GASTEIGER

@<TRIPOS>ATOM
      1 C           6.6425   19.3961    3.7106 C.ar    1  UNL1       -0.0147
      2 C           7.8994   19.2974    3.0741 C.ar    1  UNL1       -0.0427
      3 C           9.0293   19.9098    3.6084 C.ar    1  UNL1       -0.0583
      4 H           9.9731   19.8086    3.0870 H       1  UNL1        0.0620
      5 C           8.9824   20.6339    4.7817 C.ar    1  UNL1       -0.0615
      6 H           9.8763   21.0931    5.1808 H       1  UNL1        0.0618
      7 C           7.7690   20.7511    5.4277 C.ar    1  UNL1       -0.0612
      8 H           7.6895   21.3111    6.3499 H       1  UNL1        0.0618
      9 C           6.6428   20.1513    4.8924 C.ar    1  UNL1       -0.0538
     10 H           5.7243   20.2858    5.4410 H       1  UNL1        0.0624
     11 C           8.1245   18.5546    1.7819 C.3     1  UNL1       -0.0391
     12 H           9.1611   18.2276    1.7124 H       1  UNL1        0.0278
     13 H           7.9261   19.2044    0.9280 H       1  UNL1        0.0278
     14 H           7.4855   17.6731    1.6975 H       1  UNL1        0.0278
@<TRIPOS>BOND
     1    13    11    1
     2    14    11    1
     3    12    11    1
     4    11     2    1
     5     2     3   ar
     6     2     1   ar
     7     4     3    1
     8     3     5   ar
     9     1     9   ar
    10     5     6    1
    11     5     7   ar
    12     9     7   ar
    13     9    10    1
    14     7     8    1
