@<TRIPOS>MOLECULE
3
 28 27 0 0 0
SMALL
GASTEIGER

@<TRIPOS>ATOM
      1 SI          8.5371    2.4724    2.4133 Si      1  UNL1        0.0000
      2 SI          9.0456    3.7527    5.3406 Si      1  UNL1        0.0000
      3 C           7.8331    3.3792    3.9281 C.3     1  UNL1        0.0000
      4 C           7.3938    2.5683    0.8733 C.3     1  UNL1        0.0000
      5 C           8.7601    0.6103    2.7720 C.3     1  UNL1        0.0000
      6 C          10.2200    3.1912    1.8386 C.3     1  UNL1        0.0000
      7 C          10.1724    2.2606    5.7389 C.3     1  UNL1        0.0000
      8 C          10.1671    5.2664    4.9736 C.3     1  UNL1        0.0000
      9 C           8.0419    4.1914    6.9143 C.3     1  UNL1        0.0000
     10 H           7.4662    4.3534    3.5684 H       1  UNL1        0.0000
     11 H           7.8688    2.0955    0.0181 H       1  UNL1        0.0000
     12 H           7.1674    3.5918    0.5867 H       1  UNL1        0.0000
     13 H           6.4564    2.0483    1.0550 H       1  UNL1        0.0000
     14 H           8.8532    0.0376    1.8546 H       1  UNL1        0.0000
     15 H           9.6422    0.4132    3.3701 H       1  UNL1        0.0000
     16 H           7.8898    0.2518    3.3152 H       1  UNL1        0.0000
     17 H          10.5676    2.6900    0.9410 H       1  UNL1        0.0000
     18 H          10.9825    3.0666    2.5992 H       1  UNL1        0.0000
     19 H          10.1499    4.2506    1.6136 H       1  UNL1        0.0000
     20 H          10.6719    2.3845    6.6945 H       1  UNL1        0.0000
     21 H          10.9390    2.1308    4.9832 H       1  UNL1        0.0000
     22 H           9.5850    1.3500    5.7798 H       1  UNL1        0.0000
     23 H          10.8144    5.4867    5.8166 H       1  UNL1        0.0000
     24 H          10.8004    5.0918    4.1113 H       1  UNL1        0.0000
     25 H           9.5799    6.1575    4.7727 H       1  UNL1        0.0000
     26 H           8.6819    4.4027    7.7667 H       1  UNL1        0.0000
     27 H           7.4303    5.0740    6.7405 H       1  UNL1        0.0000
     28 H           7.3752    3.3688    7.1795 H       1  UNL1        0.0000
@<TRIPOS>BOND
     1    11     4    1
     2    12     4    1
     3     4    13    1
     4     4     1    1
     5    17     6    1
     6    19     6    1
     7     6     1    1
     8     6    18    1
     9    14     5    1
    10     1     5    1
    11     1     3    1
    12     5    16    1
    13     5    15    1
    14    10     3    1
    15     3     2    1
    16    24     8    1
    17    25     8    1
    18     8     2    1
    19     8    23    1
    20    21     7    1
    21     2     7    1
    22     2     9    1
    23     7    22    1
    24     7    20    1
    25    27     9    1
    26     9    28    1
    27     9    26    1
