@<TRIPOS>MOLECULE
9
 10 10 0 0 0
SMALL
GASTEIGER

@<TRIPOS>ATOM
      1 C          18.8214   16.0754   -0.6769 C.2     1  UNL1       -0.0763
      2 H          19.3501   16.7146    0.0127 H       1  UNL1        0.0578
      3 C          17.4848   16.0810   -0.9540 C.2     1  UNL1       -0.0654
      4 H          16.7347   16.6941   -0.4844 H       1  UNL1        0.0615
      5 C          17.2281   15.1427   -1.9994 C.2     1  UNL1       -0.0654
      6 H          16.2592   14.9494   -2.4274 H       1  UNL1        0.0615
      7 C          18.4052   14.5535   -2.3599 C.2     1  UNL1       -0.0763
      8 H          18.5578   13.8535   -3.1662 H       1  UNL1        0.0578
      9 C          19.4623   15.0644   -1.5070 C.3     1  UNL1        0.0054
     10 H          20.4619   15.2314   -1.9022 H       1  UNL1        0.0394
@<TRIPOS>BOND
     1     8     7    1
     2     6     5    1
     3     7     5    2
     4     7     9    1
     5     5     3    1
     6    10     9    1
     7     9     1    1
     8     3     1    2
     9     3     4    1
    10     1     2    1
