@<TRIPOS>MOLECULE
1
 10 10 0 0 0
SMALL
GASTEIGER

@<TRIPOS>ATOM
      1 C          17.7375   13.2622    1.6362 C.3     1  UNL1        0.0054
      2 H          17.7471   14.1720    2.2323 H       1  UNL1        0.0394
      3 C          18.0364   11.9757    2.2504 C.2     1  UNL1       -0.0763
      4 H          18.7419   11.8397    3.0551 H       1  UNL1        0.0578
      5 C          17.2592   11.0217    1.6591 C.2     1  UNL1       -0.0654
      6 H          17.2681    9.9660    1.8697 H       1  UNL1        0.0615
      7 C          16.3994   11.6527    0.7096 C.2     1  UNL1       -0.0654
      8 H          15.6702   11.1404    0.1052 H       1  UNL1        0.0615
      9 C          16.6526   12.9939    0.7107 C.2     1  UNL1       -0.0763
     10 H          16.1228   13.7525    0.1564 H       1  UNL1        0.0578
@<TRIPOS>BOND
     1     8     7    1
     2    10     9    1
     3     7     9    2
     4     7     5    1
     5     9     1    1
     6     1     2    1
     7     1     3    1
     8     5     6    1
     9     5     3    2
    10     3     4    1
