@<TRIPOS>MOLECULE
1
 10 10 0 0 0
SMALL
GASTEIGER

@<TRIPOS>ATOM
      1 C          20.2166   11.2067   -0.7474 C.3     1  UNL1        0.0054
      2 H          20.5638   10.5906    0.0791 H       1  UNL1        0.0394
      3 C          19.0200   10.8470   -1.4858 C.2     1  UNL1       -0.0763
      4 H          18.1560   10.3697   -1.0507 H       1  UNL1        0.0578
      5 C          19.2031   11.1669   -2.7996 C.2     1  UNL1       -0.0654
      6 H          18.4848   11.0472   -3.5928 H       1  UNL1        0.0615
      7 C          20.5230   11.6863   -2.9669 C.2     1  UNL1       -0.0654
      8 H          20.9374   12.0129   -3.9051 H       1  UNL1        0.0615
      9 C          21.1552   11.6776   -1.7573 C.2     1  UNL1       -0.0763
     10 H          22.1803   11.9433   -1.5517 H       1  UNL1        0.0578
@<TRIPOS>BOND
     1     8     7    1
     2     6     5    1
     3     7     5    1
     4     7     9    2
     5     5     3    2
     6     9    10    1
     7     9     1    1
     8     3     4    1
     9     3     1    1
    10     1     2    1
