@<TRIPOS>MOLECULE
3
 22 22 0 0 0
SMALL
GASTEIGER

@<TRIPOS>ATOM
      1 C           2.0160    3.2633    1.3580 C.2     1  UNL1       -0.0587
      2 C           2.1516    2.8163    2.7016 C.3     1  UNL1        0.0202
      3 C           2.2385    3.9733    3.5296 C.2     1  UNL1       -0.0698
      4 C           2.0657    2.4099    0.1241 C.3     1  UNL1       -0.0424
      5 H           1.2655    2.6701   -0.5681 H       1  UNL1        0.0275
      6 H           1.9805    1.3551    0.3749 H       1  UNL1        0.0275
      7 H           3.0159    2.5569   -0.3943 H       1  UNL1        0.0275
      8 C           2.4565    1.4112    3.1507 C.3     1  UNL1       -0.0512
      9 H           3.4636    1.1299    2.8341 H       1  UNL1        0.0241
     10 H           1.7647    0.6787    2.7315 H       1  UNL1        0.0241
     11 H           2.4160    1.3458    4.2364 H       1  UNL1        0.0241
     12 H           2.5487    3.9737    4.5654 H       1  UNL1        0.0584
     13 C           2.0158    4.6816    1.3575 C.2     1  UNL1       -0.0480
     14 C           2.1514    5.1296    2.7008 C.2     1  UNL1       -0.0506
     15 C           2.0652    5.5341    0.1229 C.3     1  UNL1       -0.0395
     16 H           1.2653    5.2728   -0.5692 H       1  UNL1        0.0278
     17 H           1.9792    6.5890    0.3729 H       1  UNL1        0.0278
     18 H           3.0156    5.3873   -0.3952 H       1  UNL1        0.0278
     19 C           2.4560    6.5352    3.1488 C.3     1  UNL1       -0.0397
     20 H           3.4630    6.8164    2.8318 H       1  UNL1        0.0278
     21 H           1.7639    7.2672    2.7292 H       1  UNL1        0.0278
     22 H           2.4157    6.6014    4.2344 H       1  UNL1        0.0278
@<TRIPOS>BOND
     1    16    15    1
     2     5     4    1
     3    18    15    1
     4     7     4    1
     5    15    17    1
     6    15    13    1
     7     4     6    1
     8     4     1    1
     9    13     1    2
    10    13    14    1
    11     1     2    1
    12    14    19    1
    13    14     3    2
    14     2     8    1
    15     2     3    1
    16    21    19    1
    17    10     8    1
    18    20    19    1
    19     9     8    1
    20    19    22    1
    21     8    11    1
    22     3    12    1
