@<TRIPOS>MOLECULE
1
 13 13 0 0 0
SMALL
GASTEIGER

@<TRIPOS>ATOM
      1 C           2.7184    7.2954    5.8367 C.1     1  UNL1       -0.0092
      2 C           2.7515    8.2418    6.6100 C.1     1  UNL1       -0.0525
      3 C           2.7599    9.3274    7.5113 C.ar    1  UNL1        0.0259
      4 C           3.8605    9.5594    8.3413 C.ar    1  UNL1       -0.0463
      5 H           4.7128    8.8979    8.2856 H       1  UNL1        0.0630
      6 C           3.8531   10.6202    9.2249 C.ar    1  UNL1       -0.0606
      7 H           4.7072   10.7922    9.8648 H       1  UNL1        0.0618
      8 C           2.7566   11.4652    9.2947 C.ar    1  UNL1       -0.0617
      9 H           2.7553   12.2941    9.9874 H       1  UNL1        0.0618
     10 C           1.6619   11.2427    8.4729 C.ar    1  UNL1       -0.0606
     11 H           0.8067   11.9013    8.5268 H       1  UNL1        0.0618
     12 C           1.6572   10.1839    7.5876 C.ar    1  UNL1       -0.0463
     13 H           0.8099   10.0013    6.9437 H       1  UNL1        0.0630
@<TRIPOS>BOND
     1     1     2    3
     2     2     3    1
     3    13    12    1
     4     3    12   ar
     5     3     4   ar
     6    12    10   ar
     7     5     4    1
     8     4     6   ar
     9    10    11    1
    10    10     8   ar
    11     6     8   ar
    12     6     7    1
    13     8     9    1
