@<TRIPOS>MOLECULE
2
 15 14 0 0 0
SMALL
GASTEIGER

@<TRIPOS>ATOM
      1 SI         -0.9567   21.8896    5.0820 Si      1  UNL1        0.0000
      2 C          -0.3822   19.6767    3.0308 C.1     1  UNL1        0.0000
      3 C          -0.6090   20.5563    3.8493 C.1     1  UNL1        0.0000
      4 C           0.5766   22.1262    6.1953 C.3     1  UNL1        0.0000
      5 H           0.8723   21.1841    6.6455 H       1  UNL1        0.0000
      6 H           0.3867   22.8330    6.9980 H       1  UNL1        0.0000
      7 H           1.4234   22.4955    5.6251 H       1  UNL1        0.0000
      8 C          -2.4726   21.4093    6.1383 C.3     1  UNL1        0.0000
      9 H          -3.3710   21.3567    5.5313 H       1  UNL1        0.0000
     10 H          -2.6537   22.1276    6.9330 H       1  UNL1        0.0000
     11 H          -2.3289   20.4361    6.5966 H       1  UNL1        0.0000
     12 C          -1.3222   23.5130    4.1392 C.3     1  UNL1        0.0000
     13 H          -2.1716   23.3935    3.4736 H       1  UNL1        0.0000
     14 H          -0.4724   23.8133    3.5340 H       1  UNL1        0.0000
     15 H          -1.5482   24.3306    4.8178 H       1  UNL1        0.0000
@<TRIPOS>BOND
     1     2     3    3
     2    13    12    1
     3    14    12    1
     4     3     1    1
     5    12    15    1
     6    12     1    1
     7     1     8    1
     8     1     4    1
     9     9     8    1
    10     7     4    1
    11     8    11    1
    12     8    10    1
    13     4     5    1
    14     4     6    1
