@<TRIPOS>MOLECULE
1
 15 14 0 0 0
SMALL
GASTEIGER

@<TRIPOS>ATOM
      1 C           0.3833   17.0999    3.0307 C.1     1  UNL1        0.0000
      2 C           0.6089   16.2199    3.8491 C.1     1  UNL1        0.0000
      3 SI          0.9570   14.8869    5.0821 Si      1  UNL1        0.0000
      4 C          -0.5770   14.6484    6.1940 C.3     1  UNL1        0.0000
      5 H          -0.8741   15.5901    6.6442 H       1  UNL1        0.0000
      6 H          -0.3869   13.9416    6.9966 H       1  UNL1        0.0000
      7 H          -1.4230   14.2783    5.6230 H       1  UNL1        0.0000
      8 C           2.4716   15.3684    6.1397 C.3     1  UNL1        0.0000
      9 H           3.3704   15.4222    5.5333 H       1  UNL1        0.0000
     10 H           2.6529   14.6499    6.9341 H       1  UNL1        0.0000
     11 H           2.3266   16.3413    6.5984 H       1  UNL1        0.0000
     12 C           1.3249   13.2646    4.1386 C.3     1  UNL1        0.0000
     13 H           2.1750   13.3852    3.4740 H       1  UNL1        0.0000
     14 H           0.4761   12.9637    3.5323 H       1  UNL1        0.0000
     15 H           1.5510   12.4468    4.8170 H       1  UNL1        0.0000
@<TRIPOS>BOND
     1     1     2    3
     2    13    12    1
     3    14    12    1
     4     2     3    1
     5    12    15    1
     6    12     3    1
     7     3     8    1
     8     3     4    1
     9     9     8    1
    10     7     4    1
    11     8    11    1
    12     8    10    1
    13     4     5    1
    14     4     6    1
