@<TRIPOS>MOLECULE
1
 13 13 0 0 0
SMALL
GASTEIGER

@<TRIPOS>ATOM
      1 C           1.3274    6.6139    3.6396 C.1     1  UNL1       -0.0092
      2 C           0.4278    7.0951    2.9660 C.1     1  UNL1       -0.0525
      3 C          -0.5873    7.6765    2.1764 C.ar    1  UNL1        0.0259
      4 C          -0.7829    9.0610    2.1936 C.ar    1  UNL1       -0.0463
      5 H          -0.1510    9.6689    2.8237 H       1  UNL1        0.0630
      6 C          -1.7706    9.6313    1.4164 C.ar    1  UNL1       -0.0606
      7 H          -1.9169   10.7021    1.4344 H       1  UNL1        0.0618
      8 C          -2.5750    8.8390    0.6111 C.ar    1  UNL1       -0.0617
      9 H          -3.3457    9.2899    0.0033 H       1  UNL1        0.0618
     10 C          -2.3865    7.4660    0.5883 C.ar    1  UNL1       -0.0606
     11 H          -3.0124    6.8472   -0.0392 H       1  UNL1        0.0618
     12 C          -1.4032    6.8843    1.3634 C.ar    1  UNL1       -0.0463
     13 H          -1.2524    5.8148    1.3462 H       1  UNL1        0.0630
@<TRIPOS>BOND
     1    11    10    1
     2     9     8    1
     3    10     8   ar
     4    10    12   ar
     5     8     6   ar
     6    13    12    1
     7    12     3   ar
     8     6     7    1
     9     6     4   ar
    10     3     4   ar
    11     3     2    1
    12     4     5    1
    13     2     1    3
