@<TRIPOS>MOLECULE
3
 33 33 0 0 0
SMALL
GASTEIGER

@<TRIPOS>ATOM
      1 N          14.3671    2.9304    3.5345 N.pl3   1  UNL1       -0.3023
      2 N          12.5531    3.5749    2.5647 N.pl3   1  UNL1       -0.3023
      3 C          13.7363    2.9559    2.3402 C.3     1  UNL1        0.1874
      4 C          13.5695    3.4905    4.5114 C.2     1  UNL1        0.0222
      5 C          12.4242    3.8962    3.8998 C.2     1  UNL1        0.0222
      6 C          15.6840    2.3590    3.7235 C.3     1  UNL1        0.0199
      7 C          15.6049    0.9841    4.3826 C.3     1  UNL1       -0.0467
      8 C          16.6390    3.2912    4.4697 C.3     1  UNL1       -0.0467
      9 C          13.9253    3.6303    5.9504 C.3     1  UNL1       -0.0251
     10 C          11.2472    4.5652    4.5200 C.3     1  UNL1       -0.0251
     11 C          11.5804    3.8098    1.5178 C.3     1  UNL1        0.0199
     12 C          10.4455    2.7868    1.5589 C.3     1  UNL1       -0.0467
     13 C          11.0403    5.2407    1.5076 C.3     1  UNL1       -0.0467
     14 H          16.0392    2.2128    2.7000 H       1  UNL1        0.0495
     15 H          12.1561    3.6274    0.6085 H       1  UNL1        0.0495
     16 H          10.8473    1.7929    1.3808 H       1  UNL1        0.0247
     17 H          11.8123    5.9512    1.7888 H       1  UNL1        0.0247
     18 H          11.2602    5.6401    4.3402 H       1  UNL1        0.0290
     19 H          13.0241    3.8105    6.5311 H       1  UNL1        0.0290
     20 H          17.6629    3.0408    4.2049 H       1  UNL1        0.0247
     21 H          14.9636    0.3407    3.7869 H       1  UNL1        0.0247
     22 H          16.5997    0.5490    4.4340 H       1  UNL1        0.0247
     23 H          15.2004    1.0337    5.3898 H       1  UNL1        0.0247
     24 H          16.4622    4.3282    4.1970 H       1  UNL1        0.0247
     25 H          16.5425    3.1917    5.5466 H       1  UNL1        0.0247
     26 H          14.3951    2.7290    6.3319 H       1  UNL1        0.0290
     27 H          14.5993    4.4713    6.1125 H       1  UNL1        0.0290
     28 H          10.3147    4.1608    4.1375 H       1  UNL1        0.0290
     29 H          11.2652    4.4079    5.5955 H       1  UNL1        0.0290
     30 H           9.9301    2.7888    2.5154 H       1  UNL1        0.0247
     31 H           9.7256    3.0132    0.7766 H       1  UNL1        0.0247
     32 H          10.6998    5.4865    0.5045 H       1  UNL1        0.0247
     33 H          10.1944    5.3580    2.1782 H       1  UNL1        0.0247
@<TRIPOS>BOND
     1    32    13    1
     2    15    11    1
     3    31    12    1
     4    16    12    1
     5    13    11    1
     6    13    17    1
     7    13    33    1
     8    11    12    1
     9    11     2    1
    10    12    30    1
    11     3     2    1
    12     3     1    1
    13     2     5    1
    14    14     6    1
    15     1     6    1
    16     1     4    1
    17     6     7    1
    18     6     8    1
    19    21     7    1
    20     5     4    2
    21     5    10    1
    22    28    10    1
    23    24     8    1
    24    20     8    1
    25    18    10    1
    26     7    22    1
    27     7    23    1
    28     8    25    1
    29     4     9    1
    30    10    29    1
    31     9    27    1
    32     9    26    1
    33     9    19    1
