@<TRIPOS>MOLECULE
3
 33 33 0 0 0
SMALL
GASTEIGER

@<TRIPOS>ATOM
      1 N           6.4981    3.2789    2.7357 N.pl3   1  UNL1       -0.3023
      2 N           5.7817    3.1614    4.7692 N.pl3   1  UNL1       -0.3023
      3 C           6.3377    2.4238    3.7825 C.3     1  UNL1        0.1874
      4 C           6.0372    4.5384    3.0592 C.2     1  UNL1        0.0222
      5 C           5.5896    4.4663    4.3430 C.2     1  UNL1        0.0222
      6 C           6.9983    2.7043    1.5039 C.3     1  UNL1        0.0199
      7 C           7.9159    3.6240    0.7066 C.3     1  UNL1       -0.0467
      8 C           5.8176    2.2182    0.6632 C.3     1  UNL1       -0.0467
      9 C           6.0648    5.7150    2.1494 C.3     1  UNL1       -0.0251
     10 C           5.0422    5.5650    5.1855 C.3     1  UNL1       -0.0251
     11 C           5.4523    2.5383    6.0307 C.3     1  UNL1        0.0199
     12 C           6.1111    3.2175    7.2280 C.3     1  UNL1       -0.0467
     13 C           3.9389    2.4106    6.2134 C.3     1  UNL1       -0.0467
     14 H           7.6053    1.8233    1.8300 H       1  UNL1        0.0495
     15 H           5.8811    1.5367    5.9228 H       1  UNL1        0.0495
     16 H           5.6073    5.4813    1.1896 H       1  UNL1        0.0290
     17 H           4.7223    6.3895    4.5532 H       1  UNL1        0.0290
     18 H           5.2056    3.0613    0.3484 H       1  UNL1        0.0247
     19 H           8.4686    3.0334   -0.0196 H       1  UNL1        0.0247
     20 H           5.6774    4.1918    7.4325 H       1  UNL1        0.0247
     21 H           3.7241    1.7371    7.0384 H       1  UNL1        0.0247
     22 H           6.1681    1.6959   -0.2214 H       1  UNL1        0.0247
     23 H           5.2088    1.5447    1.2604 H       1  UNL1        0.0247
     24 H           4.1858    5.2357    5.7680 H       1  UNL1        0.0290
     25 H           5.8023    5.9438    5.8698 H       1  UNL1        0.0290
     26 H           7.3533    4.3795    0.1661 H       1  UNL1        0.0247
     27 H           8.6314    4.1081    1.3644 H       1  UNL1        0.0247
     28 H           3.4763    3.3694    6.4328 H       1  UNL1        0.0247
     29 H           3.4894    2.0110    5.3077 H       1  UNL1        0.0247
     30 H           5.9783    2.5951    8.1092 H       1  UNL1        0.0247
     31 H           7.1768    3.3314    7.0489 H       1  UNL1        0.0247
     32 H           5.5145    6.5391    2.5954 H       1  UNL1        0.0290
     33 H           7.0885    6.0453    1.9779 H       1  UNL1        0.0290
@<TRIPOS>BOND
     1    22     8    1
     2    19     7    1
     3    26     7    1
     4    18     8    1
     5     8    23    1
     6     8     6    1
     7     7    27    1
     8     7     6    1
     9    16     9    1
    10     6    14    1
    11     6     1    1
    12    33     9    1
    13     9    32    1
    14     9     4    1
    15     1     4    1
    16     1     3    1
    17     4     5    2
    18     3     2    1
    19     5     2    1
    20     5    10    1
    21    17    10    1
    22     2    11    1
    23    10    24    1
    24    10    25    1
    25    29    13    1
    26    15    11    1
    27    11    13    1
    28    11    12    1
    29    13    28    1
    30    13    21    1
    31    31    12    1
    32    12    20    1
    33    12    30    1
