@<TRIPOS>MOLECULE
2
 25 25 0 0 0
SMALL
GASTEIGER

@<TRIPOS>ATOM
      1 C           7.3395   -1.1791    4.3667 C.2     1  UNL1       -0.0584
      2 C           7.6773   -1.2571    2.9893 C.3     1  UNL1        0.0231
      3 C           6.4919   -1.0029    2.2327 C.2     1  UNL1       -0.0584
      4 C           5.4314   -0.7356    3.1379 C.2     1  UNL1       -0.0477
      5 C           5.9586   -0.8325    4.4574 C.2     1  UNL1       -0.0477
      6 C           8.1912   -1.5985    5.5184 C.3     1  UNL1       -0.0424
      7 C           8.9783   -1.7321    2.4233 C.3     1  UNL1       -0.0510
      8 C           6.3996   -1.1785    0.7480 C.3     1  UNL1       -0.0424
      9 C           3.9797   -0.5583    2.8143 C.3     1  UNL1       -0.0395
     10 C           5.1406   -0.9183    5.7072 C.3     1  UNL1       -0.0395
     11 H           9.0062   -2.8226    2.3732 H       1  UNL1        0.0242
     12 H           5.4460   -0.8286    0.3610 H       1  UNL1        0.0275
     13 H           4.2359   -0.3237    5.6278 H       1  UNL1        0.0278
     14 H           3.4154   -1.4498    3.0943 H       1  UNL1        0.0278
     15 H           8.0346   -0.9502    6.3765 H       1  UNL1        0.0275
     16 H           9.1278   -1.3440    1.4179 H       1  UNL1        0.0242
     17 H           9.8073   -1.3988    3.0426 H       1  UNL1        0.0242
     18 H           4.8449   -1.9570    5.8746 H       1  UNL1        0.0278
     19 H           5.7074   -0.5944    6.5769 H       1  UNL1        0.0278
     20 H           7.1977   -0.6382    0.2388 H       1  UNL1        0.0275
     21 H           6.5006   -2.2349    0.4921 H       1  UNL1        0.0275
     22 H           7.9440   -2.6211    5.8110 H       1  UNL1        0.0275
     23 H           9.2435   -1.5614    5.2571 H       1  UNL1        0.0275
     24 H           3.5631    0.2877    3.3590 H       1  UNL1        0.0278
     25 H           3.8274   -0.3859    1.7513 H       1  UNL1        0.0278
@<TRIPOS>BOND
     1    20     8    1
     2    12     8    1
     3    21     8    1
     4     8     3    1
     5    16     7    1
     6    25     9    1
     7     3     2    1
     8     3     4    2
     9    11     7    1
    10     7     2    1
    11     7    17    1
    12     9    14    1
    13     9     4    1
    14     9    24    1
    15     2     1    1
    16     4     5    1
    17     1     5    2
    18     1     6    1
    19     5    10    1
    20    23     6    1
    21     6    22    1
    22     6    15    1
    23    13    10    1
    24    10    18    1
    25    10    19    1
