@<TRIPOS>MOLECULE
4
 25 25 0 0 0
SMALL
GASTEIGER

@<TRIPOS>ATOM
      1 C          27.6168    5.3670   15.3202 C.2     1  UNL1       -0.0477
      2 C          26.3263    5.0009   15.8008 C.2     1  UNL1       -0.0477
      3 C          25.6532    6.1921   16.2174 C.2     1  UNL1       -0.0584
      4 C          26.5195    7.2843   15.9724 C.3     1  UNL1        0.0231
      5 C          27.7273    6.7762   15.3986 C.2     1  UNL1       -0.0584
      6 C          28.7573    4.4550   15.0013 C.3     1  UNL1       -0.0395
      7 C          25.9070    3.6197   16.2039 C.3     1  UNL1       -0.0395
      8 C          24.3565    6.2206   16.9682 C.3     1  UNL1       -0.0424
      9 C          26.3576    8.7069   16.4100 C.3     1  UNL1       -0.0510
     10 C          29.0008    7.5499   15.2753 C.3     1  UNL1       -0.0424
     11 H          29.6751    7.0803   14.5657 H       1  UNL1        0.0275
     12 H          29.1918    4.6984   14.0348 H       1  UNL1        0.0278
     13 H          26.3598    3.3774   17.1687 H       1  UNL1        0.0278
     14 H          24.0246    7.2413   17.1413 H       1  UNL1        0.0275
     15 H          26.6022    9.3945   15.6006 H       1  UNL1        0.0242
     16 H          23.5740    5.6984   16.4210 H       1  UNL1        0.0275
     17 H          24.4711    5.7358   17.9390 H       1  UNL1        0.0275
     18 H          24.8294    3.5560   16.3178 H       1  UNL1        0.0278
     19 H          26.2315    2.8632   15.4935 H       1  UNL1        0.0278
     20 H          29.5356    4.5691   15.7580 H       1  UNL1        0.0278
     21 H          28.4478    3.4150   14.9881 H       1  UNL1        0.0278
     22 H          28.8171    8.5709   14.9500 H       1  UNL1        0.0275
     23 H          29.5018    7.5921   16.2459 H       1  UNL1        0.0275
     24 H          25.3459    8.9154   16.7477 H       1  UNL1        0.0242
     25 H          27.0392    8.9171   17.2364 H       1  UNL1        0.0242
@<TRIPOS>BOND
     1    12     6    1
     2    11    10    1
     3    22    10    1
     4    21     6    1
     5     6     1    1
     6     6    20    1
     7    10     5    1
     8    10    23    1
     9     1     5    2
    10     1     2    1
    11     5     4    1
    12    19     7    1
    13    15     9    1
    14     2     7    1
    15     2     3    2
    16     4     3    1
    17     4     9    1
    18     7    18    1
    19     7    13    1
    20     3     8    1
    21     9    24    1
    22     9    25    1
    23    16     8    1
    24     8    14    1
    25     8    17    1
