@<TRIPOS>MOLECULE
3
 33 33 0 0 0
SMALL
GASTEIGER

@<TRIPOS>ATOM
      1 N          23.5056    5.0359   12.9328 N.pl3   1  UNL1       -0.3023
      2 N          23.8321    7.1528   12.6803 N.pl3   1  UNL1       -0.3023
      3 C          24.3645    6.0334   13.2389 C.3     1  UNL1        0.1874
      4 C          22.4494    5.5237   12.1798 C.2     1  UNL1        0.0222
      5 C          22.6544    6.8602   12.0250 C.2     1  UNL1        0.0222
      6 C          23.7276    3.7019   13.4457 C.3     1  UNL1        0.0199
      7 C          23.8246    2.6352   12.3590 C.3     1  UNL1       -0.0467
      8 C          22.6842    3.3236   14.4993 C.3     1  UNL1       -0.0467
      9 C          21.3538    4.6949   11.6074 C.3     1  UNL1       -0.0251
     10 C          21.8322    7.8474   11.2757 C.3     1  UNL1       -0.0251
     11 C          24.4652    8.4199   12.9819 C.3     1  UNL1        0.0199
     12 C          23.7595    9.0614   14.1762 C.3     1  UNL1       -0.0467
     13 C          24.5583    9.3765   11.7987 C.3     1  UNL1       -0.0467
     14 H          24.7033    3.7939   13.9322 H       1  UNL1        0.0495
     15 H          25.5013    8.1450   13.2831 H       1  UNL1        0.0495
     16 H          25.2880   10.1513   12.0215 H       1  UNL1        0.0247
     17 H          24.2815    9.9602   14.4901 H       1  UNL1        0.0247
     18 H          24.5701    2.9144   11.6199 H       1  UNL1        0.0247
     19 H          21.6105    8.7228   11.8832 H       1  UNL1        0.0290
     20 H          24.1386    1.6977   12.8099 H       1  UNL1        0.0247
     21 H          22.8716    2.4716   11.8652 H       1  UNL1        0.0247
     22 H          22.7374    9.3283   13.9169 H       1  UNL1        0.0247
     23 H          23.7375    8.3537   14.9998 H       1  UNL1        0.0247
     24 H          22.3520    8.1688   10.3738 H       1  UNL1        0.0290
     25 H          20.8903    7.3946   10.9788 H       1  UNL1        0.0290
     26 H          24.8845    8.8445   10.9093 H       1  UNL1        0.0247
     27 H          23.6078    9.8617   11.5994 H       1  UNL1        0.0247
     28 H          23.0157    2.4417   15.0406 H       1  UNL1        0.0247
     29 H          20.9611    3.9866   12.3317 H       1  UNL1        0.0290
     30 H          22.5507    4.1385   15.2063 H       1  UNL1        0.0247
     31 H          21.7205    3.0970   14.0514 H       1  UNL1        0.0247
     32 H          20.5369    5.3363   11.2869 H       1  UNL1        0.0290
     33 H          21.7063    4.1415   10.7365 H       1  UNL1        0.0290
@<TRIPOS>BOND
     1    24    10    1
     2    33     9    1
     3    26    13    1
     4    25    10    1
     5    10    19    1
     6    10     5    1
     7    32     9    1
     8    27    13    1
     9     9     4    1
    10     9    29    1
    11    18     7    1
    12    13    16    1
    13    13    11    1
    14    21     7    1
    15     5     4    2
    16     5     2    1
    17     4     1    1
    18     7    20    1
    19     7     6    1
    20     2    11    1
    21     2     3    1
    22     1     3    1
    23     1     6    1
    24    11    15    1
    25    11    12    1
    26     6    14    1
    27     6     8    1
    28    22    12    1
    29    31     8    1
    30    12    17    1
    31    12    23    1
    32     8    28    1
    33     8    30    1
