@<TRIPOS>MOLECULE
1
 4 3 0 0 0
SMALL
GASTEIGER

@<TRIPOS>ATOM
      1 C           0.9960    4.7226   14.6529 C.3     1  UNL1       -0.0681
      2 H           0.6244    5.6787   14.2706 H       1  UNL1        0.0227
      3 H           1.8905    4.9364   15.2402 H       1  UNL1        0.0227
      4 H           1.2935    4.1157   13.7950 H       1  UNL1        0.0227
@<TRIPOS>BOND
     1     4     1    1
     2     2     1    1
     3     1     3    1
