@<TRIPOS>MOLECULE
2
 28 29 0 0 0
SMALL
GASTEIGER

@<TRIPOS>ATOM
      1 SI          4.6379   -1.9197   11.9995 Si      1  UNL1        0.0000
      2 C           4.3164    1.6339   12.4075 C.2     1  UNL1        0.0000
      3 O           3.7243    1.9605   13.4005 O.2     1  UNL1        0.0000
      4 C           3.8870    0.8354   11.2884 C.2     1  UNL1        0.0000
      5 C           3.9694   -0.4725   11.0022 C.2     1  UNL1        0.0000
      6 C           3.4676   -0.6140    9.5610 C.3     1  UNL1        0.0000
      7 H           3.1956   -1.6208    9.2613 H       1  UNL1        0.0000
      8 C           4.5033    0.0868    8.7088 C.2     1  UNL1        0.0000
      9 H           5.1836   -0.4243    8.0556 H       1  UNL1        0.0000
     10 C           4.4349    1.3814    8.9912 C.2     1  UNL1        0.0000
     11 H           5.0414    2.1848    8.6203 H       1  UNL1        0.0000
     12 C           3.3485    1.5515   10.0318 C.3     1  UNL1        0.0000
     13 H           2.9672    2.5554   10.1913 H       1  UNL1        0.0000
     14 C           2.3719    0.4623    9.5679 C.3     1  UNL1        0.0000
     15 H           1.9514    0.6590    8.5816 H       1  UNL1        0.0000
     16 H           1.5737    0.2622   10.2813 H       1  UNL1        0.0000
     17 C           5.9939   -2.7470   10.9412 C.3     1  UNL1        0.0000
     18 H           5.5898   -3.1486   10.0169 H       1  UNL1        0.0000
     19 H           6.4677   -3.5656   11.4743 H       1  UNL1        0.0000
     20 H           6.7682   -2.0324   10.6783 H       1  UNL1        0.0000
     21 C           3.1977   -3.1392   12.2981 C.3     1  UNL1        0.0000
     22 H           3.5411   -4.0306   12.8141 H       1  UNL1        0.0000
     23 H           2.7420   -3.4576   11.3654 H       1  UNL1        0.0000
     24 H           2.4197   -2.6875   12.9061 H       1  UNL1        0.0000
     25 C           5.3576   -1.3184   13.6503 C.3     1  UNL1        0.0000
     26 H           6.3320   -0.8661   13.5014 H       1  UNL1        0.0000
     27 H           5.4797   -2.1374   14.3519 H       1  UNL1        0.0000
     28 H           4.7178   -0.5769   14.1171 H       1  UNL1        0.0000
@<TRIPOS>BOND
     1     9     8    1
     2    15    14    1
     3    11    10    1
     4     8    10    2
     5     8     6    1
     6    10    12    1
     7     7     6    1
     8     6    14    1
     9     6     5    1
    10    14    12    1
    11    14    16    1
    12    18    17    1
    13    12    13    1
    14    12     4    1
    15    20    17    1
    16    17    19    1
    17    17     1    1
    18     5     4    2
    19     5     1    1
    20     4     2    1
    21    23    21    1
    22     1    21    1
    23     1    25    1
    24    21    22    1
    25    21    24    1
    26     2     3    2
    27    26    25    1
    28    25    28    1
    29    25    27    1
