@<TRIPOS>MOLECULE
1
 8 7 0 0 0
SMALL
GASTEIGER

@<TRIPOS>ATOM
      1 C           1.1651    3.0353    1.2315 C.3     1  UNL1       -0.0316
      2 C           0.3867    4.2601    1.3595 C.2     1  UNL1       -0.0908
      3 C          -0.9290    4.3363    1.6079 C.2     1  UNL1       -0.1026
      4 H           0.5434    2.1970    0.8966 H       1  UNL1        0.0310
      5 H           2.0335    3.1665    0.5748 H       1  UNL1        0.0310
      6 H           0.9318    5.1945    1.2159 H       1  UNL1        0.0566
      7 H          -1.4386    5.2793    1.7114 H       1  UNL1        0.0532
      8 H          -1.5316    3.4456    1.7080 H       1  UNL1        0.0532
@<TRIPOS>BOND
     1     5     1    1
     2     4     1    1
     3     6     2    1
     4     1     2    1
     5     2     3    2
     6     3     8    1
     7     3     7    1
