@<TRIPOS>MOLECULE
6
 8 7 0 0 0
SMALL
GASTEIGER

@<TRIPOS>ATOM
      1 C           3.9076    6.5121   17.3536 C.2     1  UNL1       -0.1026
      2 H           2.9958    5.9455   17.4766 H       1  UNL1        0.0532
      3 H           4.2795    7.0155   18.2297 H       1  UNL1        0.0532
      4 C           4.5173    6.6129   16.1619 C.2     1  UNL1       -0.0908
      5 H           5.3914    7.2650   16.0977 H       1  UNL1        0.0566
      6 C           4.1109    5.9484   14.9287 C.3     1  UNL1       -0.0316
      7 H           4.4186    6.5066   14.0379 H       1  UNL1        0.0310
      8 H           3.0245    5.7743   14.9117 H       1  UNL1        0.0310
@<TRIPOS>BOND
     1     7     6    1
     2     8     6    1
     3     6     4    1
     4     5     4    1
     5     4     1    2
     6     1     2    1
     7     1     3    1
