@<TRIPOS>MOLECULE
1
 4 3 0 0 0
SMALL
GASTEIGER

@<TRIPOS>ATOM
      1 C           6.7321   10.0155    4.2763 C.3     1  UNL1       -0.0681
      2 H           5.7986   10.5436    4.5374 H       1  UNL1        0.0227
      3 H           7.0040   10.3278    3.2569 H       1  UNL1        0.0227
      4 H           7.5017   10.4096    4.9578 H       1  UNL1        0.0227
@<TRIPOS>BOND
     1     3     1    1
     2     1     2    1
     3     1     4    1
