@<TRIPOS>MOLECULE
4
 35 34 0 0 0
SMALL
GASTEIGER

@<TRIPOS>ATOM
      1 SI          0.0819    5.2058    7.8404 Si      1  UNL1        0.0000
      2 O           5.3359    4.5977    7.9602 O.3     1  UNL1        0.0000
      3 H           5.2481    4.1352    7.1091 H       1  UNL1        0.0000
      4 C           5.0976    5.9279    5.5401 C.3     1  UNL1        0.0000
      5 C           4.9309    6.6974    6.7553 C.3     1  UNL1        0.0000
      6 H           4.1572    7.4628    6.6410 H       1  UNL1        0.0000
      7 H           5.8829    7.1921    6.9718 H       1  UNL1        0.0000
      8 C           4.5615    5.7702    7.9670 C.3     1  UNL1        0.0000
      9 C           3.1262    5.5052    7.8537 C.1     1  UNL1        0.0000
     10 C           1.9330    5.3441    7.7671 C.1     1  UNL1        0.0000
     11 C          -0.6140    4.2598    6.3407 C.3     1  UNL1        0.0000
     12 H          -0.2496    4.6742    5.4055 H       1  UNL1        0.0000
     13 H          -1.6993    4.3101    6.3213 H       1  UNL1        0.0000
     14 H          -0.3364    3.2109    6.3735 H       1  UNL1        0.0000
     15 C          -0.6101    6.9842    7.8578 C.3     1  UNL1        0.0000
     16 H          -0.3946    7.4972    6.9257 H       1  UNL1        0.0000
     17 H          -0.1768    7.5690    8.6638 H       1  UNL1        0.0000
     18 H          -1.6879    6.9879    7.9925 H       1  UNL1        0.0000
     19 C          -0.3646    4.3021    9.4589 C.3     1  UNL1        0.0000
     20 H           0.0988    3.3209    9.4983 H       1  UNL1        0.0000
     21 H          -1.4378    4.1642    9.5564 H       1  UNL1        0.0000
     22 H          -0.0240    4.8583   10.3272 H       1  UNL1        0.0000
     23 C           4.8195    6.4695    9.3446 C.3     1  UNL1        0.0000
     24 C           6.3199    6.6892    9.5529 C.3     1  UNL1        0.0000
     25 H           6.4999    7.0372   10.5674 H       1  UNL1        0.0000
     26 H           6.7196    7.4352    8.8690 H       1  UNL1        0.0000
     27 H           6.8511    5.7535    9.4051 H       1  UNL1        0.0000
     28 C           4.3096    5.5320   10.4449 C.3     1  UNL1        0.0000
     29 H           3.2335    5.3997   10.3654 H       1  UNL1        0.0000
     30 H           4.5416    5.9423   11.4251 H       1  UNL1        0.0000
     31 H           4.7863    4.5610   10.3468 H       1  UNL1        0.0000
     32 C           4.0777    7.8042    9.4338 C.3     1  UNL1        0.0000
     33 H           3.0227    7.6709    9.2041 H       1  UNL1        0.0000
     34 H           4.4954    8.5397    8.7501 H       1  UNL1        0.0000
     35 H           4.1632    8.1984   10.4439 H       1  UNL1        0.0000
@<TRIPOS>BOND
     1    12    11    1
     2     4     5    1
     3    13    11    1
     4    11    14    1
     5    11     1    1
     6     6     5    1
     7     5     7    1
     8     5     8    1
     9    16    15    1
    10     3     2    1
    11    10     1    1
    12    10     9    3
    13     1    15    1
    14     1    19    1
    15     9     8    1
    16    15    18    1
    17    15    17    1
    18     2     8    1
    19     8    23    1
    20    34    32    1
    21    26    24    1
    22    33    32    1
    23    23    32    1
    24    23    24    1
    25    23    28    1
    26    27    24    1
    27    32    35    1
    28    19    20    1
    29    19    21    1
    30    19    22    1
    31    24    25    1
    32    31    28    1
    33    29    28    1
    34    28    30    1
