@<TRIPOS>MOLECULE
1
 14 14 0 0 0
SMALL
GASTEIGER

@<TRIPOS>ATOM
      1 C           1.1634    0.5460    7.4658 C.3     1  UNL1       -0.0237
      2 H           0.1561    0.7491    7.0810 H       1  UNL1        0.0316
      3 H           1.5293   -0.4215    7.0873 H       1  UNL1        0.0316
      4 C           1.1809    0.5770    8.9357 C.ar    1  UNL1       -0.0470
      5 C           2.0891   -0.2009    9.6667 C.ar    1  UNL1       -0.0586
      6 H           2.7754   -0.8494    9.1333 H       1  UNL1        0.0620
      7 C           2.1294   -0.1415   11.0465 C.ar    1  UNL1       -0.0615
      8 H           2.8399   -0.7485   11.5897 H       1  UNL1        0.0618
      9 C           1.2648    0.6937   11.7381 C.ar    1  UNL1       -0.0617
     10 H           1.3014    0.7430   12.8162 H       1  UNL1        0.0618
     11 C           0.3488    1.4595   11.0330 C.ar    1  UNL1       -0.0615
     12 H          -0.3353    2.1066   11.5640 H       1  UNL1        0.0618
     13 C           0.2972    1.3940    9.6539 C.ar    1  UNL1       -0.0586
     14 H          -0.4379    1.9803    9.1153 H       1  UNL1        0.0620
@<TRIPOS>BOND
     1     2     1    1
     2     3     1    1
     3     1     4    1
     4     4    13   ar
     5     4     5   ar
     6    14    13    1
     7     6     5    1
     8    13    11   ar
     9     5     7   ar
    10    11    12    1
    11    11     9   ar
    12     7     8    1
    13     7     9   ar
    14     9    10    1
