@<TRIPOS>MOLECULE
1
 21 21 0 0 0
SMALL
GASTEIGER

@<TRIPOS>ATOM
      1 C          -0.5317    0.7579    3.1250 C.3     1  UNL1        0.0297
      2 C          -1.3905   -0.3281    2.8530 C.ar    1  UNL1       -0.0385
      3 C          -2.4299   -0.6680    3.7380 C.ar    1  UNL1       -0.0577
      4 H          -2.5622   -0.0797    4.6348 H       1  UNL1        0.0621
      5 C          -3.2656   -1.7270    3.4617 C.ar    1  UNL1       -0.0580
      6 H          -4.0596   -1.9694    4.1547 H       1  UNL1        0.0620
      7 C          -3.1081   -2.4929    2.3098 C.ar    1  UNL1       -0.0448
      8 C          -2.0780   -2.1610    1.4321 C.ar    1  UNL1       -0.0580
      9 H          -1.9334   -2.7387    0.5310 H       1  UNL1        0.0620
     10 C          -1.2356   -1.1037    1.6885 C.ar    1  UNL1       -0.0577
     11 H          -0.4392   -0.8541    1.0018 H       1  UNL1        0.0621
     12 C          -4.0332   -3.6488    2.0275 C.3     1  UNL1       -0.0215
     13 H          -4.7530   -3.7188    2.8508 H       1  UNL1        0.0343
     14 C          -3.2551   -4.9652    1.9627 C.3     1  UNL1       -0.0587
     15 H          -2.7010   -5.1235    2.8853 H       1  UNL1        0.0235
     16 H          -2.5494   -4.9579    1.1359 H       1  UNL1        0.0235
     17 H          -3.9394   -5.7990    1.8220 H       1  UNL1        0.0235
     18 C          -4.8136   -3.4157    0.7317 C.3     1  UNL1       -0.0587
     19 H          -5.3647   -2.4791    0.7848 H       1  UNL1        0.0235
     20 H          -5.5214   -4.2255    0.5690 H       1  UNL1        0.0235
     21 H          -4.1421   -3.3705   -0.1220 H       1  UNL1        0.0235
@<TRIPOS>BOND
     1    21    18    1
     2     9     8    1
     3    20    18    1
     4    18    19    1
     5    18    12    1
     6    11    10    1
     7    16    14    1
     8     8    10   ar
     9     8     7   ar
    10    10     2   ar
    11    17    14    1
    12    14    12    1
    13    14    15    1
    14    12     7    1
    15    12    13    1
    16     7     5   ar
    17     2     1    1
    18     2     3   ar
    19     5     3   ar
    20     5     6    1
    21     3     4    1
