@<TRIPOS>MOLECULE
1
 4 3 0 0 0
SMALL
GASTEIGER

@<TRIPOS>ATOM
      1 C          -0.2666    3.4411    6.9892 C.3     1  UNL1       -0.0681
      2 H          -0.9203    2.5783    7.1932 H       1  UNL1        0.0227
      3 H           0.5528    3.0706    6.3550 H       1  UNL1        0.0227
      4 H          -0.8568    4.1304    6.3636 H       1  UNL1        0.0227
@<TRIPOS>BOND
     1     3     1    1
     2     4     1    1
     3     1     2    1
