@<TRIPOS>MOLECULE
1
 4 3 0 0 0
SMALL
GASTEIGER

@<TRIPOS>ATOM
      1 C           5.8549    5.6521    5.2854 C.3     1  UNL1       -0.0681
      2 H           6.6544    6.3348    4.9543 H       1  UNL1        0.0227
      3 H           6.1662    5.2589    6.2638 H       1  UNL1        0.0227
      4 H           4.9690    6.2812    5.4632 H       1  UNL1        0.0227
@<TRIPOS>BOND
     1     2     1    1
     2     1     4    1
     3     1     3    1
