@<TRIPOS>MOLECULE
1
 4 3 0 0 0
SMALL
GASTEIGER

@<TRIPOS>ATOM
      1 C          -1.7062    4.8852    9.4066 C.3     1  UNL1       -0.0681
      2 H          -2.1991    5.5594    8.6891 H       1  UNL1        0.0227
      3 H          -1.7513    5.3775   10.3936 H       1  UNL1        0.0227
      4 H          -2.3326    3.9814    9.4675 H       1  UNL1        0.0227
@<TRIPOS>BOND
     1     2     1    1
     2     1     4    1
     3     1     3    1
