@<TRIPOS>MOLECULE
1
 4 3 0 0 0
SMALL
GASTEIGER

@<TRIPOS>ATOM
      1 C           5.0554    5.7118    2.2990 C.3     1  UNL1       -0.0681
      2 H           4.2545    6.3788    2.6572 H       1  UNL1        0.0227
      3 H           4.7449    5.3570    1.3057 H       1  UNL1        0.0227
      4 H           5.9399    6.3495    2.1465 H       1  UNL1        0.0227
@<TRIPOS>BOND
     1     3     1    1
     2     4     1    1
     3     1     2    1
