@<TRIPOS>MOLECULE
3
 32 31 0 0 0
SMALL
GASTEIGER

@<TRIPOS>ATOM
      1 SI         -0.1052    8.5367    4.1064 Si      1  UNL1        0.0000
      2 SI          1.2419    6.3569    9.1794 Si      1  UNL1        0.0000
      3 C           1.0056    7.3395    5.0566 C.3     1  UNL1        0.0000
      4 H           1.0019    6.3141    4.6588 H       1  UNL1        0.0000
      5 C           0.9035    7.3310    6.5101 C.2     1  UNL1        0.0000
      6 H           0.5399    8.2496    6.9731 H       1  UNL1        0.0000
      7 C           1.1696    6.2753    7.3143 C.2     1  UNL1        0.0000
      8 H           1.4768    5.3519    6.8300 H       1  UNL1        0.0000
      9 C          -0.0144    7.6284    9.8659 C.3     1  UNL1        0.0000
     10 H           0.1971    8.6378    9.5238 H       1  UNL1        0.0000
     11 H          -0.0035    7.6453   10.9518 H       1  UNL1        0.0000
     12 H          -1.0246    7.3851    9.5527 H       1  UNL1        0.0000
     13 C           0.8725    4.6482    9.9379 C.3     1  UNL1        0.0000
     14 H          -0.1343    4.3181    9.7033 H       1  UNL1        0.0000
     15 H           0.9706    4.6645   11.0191 H       1  UNL1        0.0000
     16 H           1.5600    3.8993    9.5580 H       1  UNL1        0.0000
     17 C           2.9978    6.9121    9.7320 C.3     1  UNL1        0.0000
     18 H           3.6000    6.0635   10.0383 H       1  UNL1        0.0000
     19 H           2.9673    7.6092   10.5653 H       1  UNL1        0.0000
     20 H           3.5272    7.3876    8.9090 H       1  UNL1        0.0000
     21 C          -1.9855    8.2136    4.2724 C.3     1  UNL1        0.0000
     22 H          -2.2504    7.2434    3.8641 H       1  UNL1        0.0000
     23 H          -2.5686    8.9626    3.7453 H       1  UNL1        0.0000
     24 H          -2.2945    8.2241    5.3130 H       1  UNL1        0.0000
     25 C           0.2402   10.3185    4.7492 C.3     1  UNL1        0.0000
     26 H          -0.0984   10.4444    5.7736 H       1  UNL1        0.0000
     27 H          -0.2792   11.0568    4.1465 H       1  UNL1        0.0000
     28 H           1.3063   10.5567    4.7091 H       1  UNL1        0.0000
     29 C           0.3852    8.4870    2.2577 C.3     1  UNL1        0.0000
     30 H          -0.0963    9.2868    1.7048 H       1  UNL1        0.0000
     31 H           1.4615    8.5966    2.1246 H       1  UNL1        0.0000
     32 H           0.0869    7.5526    1.7941 H       1  UNL1        0.0000
@<TRIPOS>BOND
     1    30    29    1
     2    32    29    1
     3    31    29    1
     4    29     1    1
     5    23    21    1
     6    22    21    1
     7     1    21    1
     8     1    25    1
     9     1     3    1
    10    27    25    1
    11    21    24    1
    12     4     3    1
    13    28    25    1
    14    25    26    1
    15     3     5    1
    16     5     6    1
    17     5     7    2
    18     8     7    1
    19     7     2    1
    20    20    17    1
    21     2    17    1
    22     2     9    1
    23     2    13    1
    24    10     9    1
    25    12     9    1
    26    16    13    1
    27    14    13    1
    28    17    18    1
    29    17    19    1
    30     9    11    1
    31    13    15    1
