@<TRIPOS>MOLECULE
1
 14 14 0 0 0
SMALL
GASTEIGER

@<TRIPOS>ATOM
      1 C           1.8810    2.1499   13.2474 C.3     1  UNL1       -0.0237
      2 C           2.2169    3.5761   13.2394 C.ar    1  UNL1       -0.0470
      3 C           1.3770    4.5344   12.6520 C.ar    1  UNL1       -0.0586
      4 C           1.7177    5.8729   12.6369 C.ar    1  UNL1       -0.0615
      5 C           2.8973    6.3051   13.2224 C.ar    1  UNL1       -0.0617
      6 C           3.7280    5.3803   13.8351 C.ar    1  UNL1       -0.0615
      7 C           3.3941    4.0400   13.8445 C.ar    1  UNL1       -0.0586
      8 H           0.7893    2.0012   13.2821 H       1  UNL1        0.0316
      9 H           2.3397    1.6641   14.1156 H       1  UNL1        0.0316
     10 H           0.4335    4.2194   12.2211 H       1  UNL1        0.0620
     11 H           1.0529    6.5898   12.1757 H       1  UNL1        0.0618
     12 H           3.1593    7.3523   13.2144 H       1  UNL1        0.0618
     13 H           4.6374    5.7136   14.3155 H       1  UNL1        0.0618
     14 H           4.0413    3.3266   14.3426 H       1  UNL1        0.0620
@<TRIPOS>BOND
     1    11     4    1
     2    10     3    1
     3     4     3   ar
     4     4     5   ar
     5     3     2   ar
     6    12     5    1
     7     5     6   ar
     8     2     1    1
     9     2     7   ar
    10     1     8    1
    11     1     9    1
    12     6     7   ar
    13     6    13    1
    14     7    14    1
