@<TRIPOS>MOLECULE
1
 14 14 0 0 0
SMALL
GASTEIGER

@<TRIPOS>ATOM
      1 C           1.0917    2.0966   10.2613 C.3     1  UNL1       -0.0237
      2 C           0.9993    1.4803    8.9321 C.ar    1  UNL1       -0.0470
      3 C           1.9810    1.7124    7.9585 C.ar    1  UNL1       -0.0586
      4 C           1.8903    1.1523    6.7003 C.ar    1  UNL1       -0.0615
      5 C           0.8143    0.3431    6.3677 C.ar    1  UNL1       -0.0617
      6 C          -0.1747    0.1113    7.3096 C.ar    1  UNL1       -0.0615
      7 C          -0.0881    0.6761    8.5681 C.ar    1  UNL1       -0.0586
      8 H           0.1087    2.0556   10.7598 H       1  UNL1        0.0316
      9 H           1.3993    3.1510   10.1610 H       1  UNL1        0.0316
     10 H           2.8197    2.3539    8.2053 H       1  UNL1        0.0620
     11 H           2.6588    1.3504    5.9657 H       1  UNL1        0.0618
     12 H           0.7422   -0.0916    5.3820 H       1  UNL1        0.0618
     13 H          -1.0267   -0.5044    7.0556 H       1  UNL1        0.0618
     14 H          -0.8844    0.5102    9.2834 H       1  UNL1        0.0620
@<TRIPOS>BOND
     1    12     5    1
     2    11     4    1
     3     5     4   ar
     4     5     6   ar
     5     4     3   ar
     6    13     6    1
     7     6     7   ar
     8     3    10    1
     9     3     2   ar
    10     7     2   ar
    11     7    14    1
    12     2     1    1
    13     9     1    1
    14     1     8    1
