@<TRIPOS>MOLECULE
2
 15 14 0 0 0
SMALL
GASTEIGER

@<TRIPOS>ATOM
      1 N          10.4653   10.4348   22.0555 N.3     1  UNL1       -0.2219
      2 C           9.4317   10.0070   22.4290 C.3     1  UNL1        0.1072
      3 C          11.6692   10.8926   21.4766 C.3     1  UNL1        0.0290
      4 C          11.7052   10.4803   19.9995 C.3     1  UNL1       -0.0458
      5 H          11.6699    9.3977   19.9037 H       1  UNL1        0.0248
      6 H          12.6220   10.8403   19.5392 H       1  UNL1        0.0248
      7 H          10.8576   10.9029   19.4658 H       1  UNL1        0.0248
      8 C          12.8533   10.2660   22.2214 C.3     1  UNL1       -0.0458
      9 H          12.8014   10.4986   23.2823 H       1  UNL1        0.0248
     10 H          13.7863   10.6569   21.8231 H       1  UNL1        0.0248
     11 H          12.8474    9.1868   22.0999 H       1  UNL1        0.0248
     12 C          11.7322   12.4198   21.5962 C.3     1  UNL1       -0.0458
     13 H          10.8982   12.8786   21.0704 H       1  UNL1        0.0248
     14 H          12.6591   12.7843   21.1603 H       1  UNL1        0.0248
     15 H          11.6945   12.7175   22.6409 H       1  UNL1        0.0248
@<TRIPOS>BOND
     1     7     4    1
     2     6     4    1
     3     5     4    1
     4     4     3    1
     5    13    12    1
     6    14    12    1
     7     3    12    1
     8     3     1    1
     9     3     8    1
    10    12    15    1
    11    10     8    1
    12     1     2    1
    13    11     8    1
    14     8     9    1
