@<TRIPOS>MOLECULE
2
 16 15 0 0 0
SMALL
GASTEIGER

@<TRIPOS>ATOM
      1 SI         12.9162    8.8725    4.0693 Si      1  UNL1        0.0000
      2 C          12.2141    7.6352    5.2981 C.3     1  UNL1        0.0000
      3 H          11.9368    8.1865    6.2117 H       1  UNL1        0.0000
      4 H          13.0452    6.9818    5.6047 H       1  UNL1        0.0000
      5 C          11.7017   10.3338    3.7780 C.3     1  UNL1        0.0000
      6 H          10.6798    9.9846    3.6570 H       1  UNL1        0.0000
      7 H          11.9668   10.8855    2.8817 H       1  UNL1        0.0000
      8 H          11.7201   11.0385    4.6030 H       1  UNL1        0.0000
      9 C          14.5854    9.6779    4.5788 C.3     1  UNL1        0.0000
     10 H          14.5095   10.1725    5.5429 H       1  UNL1        0.0000
     11 H          14.9177   10.4185    3.8570 H       1  UNL1        0.0000
     12 H          15.3661    8.9276    4.6603 H       1  UNL1        0.0000
     13 C          13.1996    8.0608    2.3596 C.3     1  UNL1        0.0000
     14 H          13.7106    7.1095    2.4619 H       1  UNL1        0.0000
     15 H          13.7999    8.6911    1.7106 H       1  UNL1        0.0000
     16 H          12.2549    7.8724    1.8570 H       1  UNL1        0.0000
@<TRIPOS>BOND
     1    15    13    1
     2    16    13    1
     3    13    14    1
     4    13     1    1
     5     7     5    1
     6     6     5    1
     7     5     1    1
     8     5     8    1
     9    11     9    1
    10     1     9    1
    11     1     2    1
    12     9    12    1
    13     9    10    1
    14     2     4    1
    15     2     3    1
