@<TRIPOS>MOLECULE
2
 16 15 0 0 0
SMALL
GASTEIGER

@<TRIPOS>ATOM
      1 SI         11.9227   -1.0634   12.0233 Si      1  UNL1        0.0000
      2 C          10.7024   -0.6833   13.4095 C.3     1  UNL1        0.0000
      3 H          11.1943    0.0035   14.1229 H       1  UNL1        0.0000
      4 H          10.5579   -1.6236   13.9698 H       1  UNL1        0.0000
      5 C          13.6551   -1.6523   12.6233 C.3     1  UNL1        0.0000
      6 H          14.1330   -0.9103   13.2567 H       1  UNL1        0.0000
      7 H          14.3232   -1.8465   11.7895 H       1  UNL1        0.0000
      8 H          13.5775   -2.5694   13.1991 H       1  UNL1        0.0000
      9 C          11.2180   -2.4413   10.8977 C.3     1  UNL1        0.0000
     10 H          11.0373   -3.3527   11.4593 H       1  UNL1        0.0000
     11 H          11.8994   -2.6864   10.0886 H       1  UNL1        0.0000
     12 H          10.2746   -2.1289   10.4595 H       1  UNL1        0.0000
     13 C          12.2529    0.4782   10.9289 C.3     1  UNL1        0.0000
     14 H          11.3141    0.9771   10.7061 H       1  UNL1        0.0000
     15 H          12.7127    0.2034    9.9848 H       1  UNL1        0.0000
     16 H          12.9066    1.1966   11.4151 H       1  UNL1        0.0000
@<TRIPOS>BOND
     1    15    13    1
     2    11     9    1
     3    12     9    1
     4    14    13    1
     5     9    10    1
     6     9     1    1
     7    13    16    1
     8    13     1    1
     9     7     5    1
    10     1     5    1
    11     1     2    1
    12     5     8    1
    13     5     6    1
    14     2     4    1
    15     2     3    1
