@<TRIPOS>MOLECULE
2
 16 15 0 0 0
SMALL
GASTEIGER

@<TRIPOS>ATOM
      1 SI          7.0357   -0.6340    9.8688 Si      1  UNL1        0.0000
      2 C           7.4607   -1.2550   11.5980 C.3     1  UNL1        0.0000
      3 H           8.0272   -2.1946   11.4916 H       1  UNL1        0.0000
      4 H           6.5165   -1.5397   12.0927 H       1  UNL1        0.0000
      5 C           5.9536    0.9503    9.9680 C.3     1  UNL1        0.0000
      6 H           4.9736    0.7519   10.3911 H       1  UNL1        0.0000
      7 H           5.8046    1.3914    8.9866 H       1  UNL1        0.0000
      8 H           6.4477    1.6908   10.5919 H       1  UNL1        0.0000
      9 C           6.0454   -1.8737    8.7820 C.3     1  UNL1        0.0000
     10 H           6.5995   -2.7967    8.6434 H       1  UNL1        0.0000
     11 H           5.8352   -1.4680    7.7969 H       1  UNL1        0.0000
     12 H           5.0949   -2.1313    9.2392 H       1  UNL1        0.0000
     13 C           8.6033   -0.1733    8.8677 C.3     1  UNL1        0.0000
     14 H           9.3098    0.3585    9.4980 H       1  UNL1        0.0000
     15 H           8.3655    0.4695    8.0245 H       1  UNL1        0.0000
     16 H           9.1057   -1.0524    8.4774 H       1  UNL1        0.0000
@<TRIPOS>BOND
     1    11     9    1
     2    15    13    1
     3    16    13    1
     4    10     9    1
     5     9    12    1
     6     9     1    1
     7    13    14    1
     8    13     1    1
     9     7     5    1
    10     1     5    1
    11     1     2    1
    12     5     6    1
    13     5     8    1
    14     3     2    1
    15     2     4    1
