@<TRIPOS>MOLECULE
2
 16 15 0 0 0
SMALL
GASTEIGER

@<TRIPOS>ATOM
      1 SI         12.7521    3.7700    3.0885 Si      1  UNL1        0.0000
      2 C          11.2296    4.8857    2.9952 C.3     1  UNL1        0.0000
      3 H          10.3722    4.2594    2.6940 H       1  UNL1        0.0000
      4 H          11.4129    5.5642    2.1467 H       1  UNL1        0.0000
      5 C          12.3263    1.9237    3.4042 C.3     1  UNL1        0.0000
      6 H          12.0002    1.7506    4.4250 H       1  UNL1        0.0000
      7 H          13.1934    1.2928    3.2339 H       1  UNL1        0.0000
      8 H          11.5376    1.5772    2.7433 H       1  UNL1        0.0000
      9 C          13.7762    3.7875    1.4637 C.3     1  UNL1        0.0000
     10 H          13.2171    3.3626    0.6352 H       1  UNL1        0.0000
     11 H          14.6973    3.2210    1.5617 H       1  UNL1        0.0000
     12 H          14.0455    4.8026    1.1879 H       1  UNL1        0.0000
     13 C          13.9430    4.3260    4.4858 C.3     1  UNL1        0.0000
     14 H          14.4301    5.2621    4.2290 H       1  UNL1        0.0000
     15 H          14.7216    3.5904    4.6659 H       1  UNL1        0.0000
     16 H          13.4070    4.4791    5.4208 H       1  UNL1        0.0000
@<TRIPOS>BOND
     1    10     9    1
     2    12     9    1
     3     9    11    1
     4     9     1    1
     5     4     2    1
     6     3     2    1
     7     8     5    1
     8     2     1    1
     9     1     5    1
    10     1    13    1
    11     7     5    1
    12     5     6    1
    13    14    13    1
    14    13    15    1
    15    13    16    1
