@<TRIPOS>MOLECULE
1
 22 22 0 0 0
SMALL
GASTEIGER

@<TRIPOS>ATOM
      1 C           4.4895    9.8325   14.1943 C.3     1  UNL1       -0.0219
      2 H           4.3737    9.8477   13.1070 H       1  UNL1        0.0317
      3 H           4.5034   10.8643   14.5576 H       1  UNL1        0.0317
      4 C           6.0788    8.9283   15.9338 C.ar    1  UNL1        0.0324
      5 C           5.6805    9.0784   14.5798 C.ar    1  UNL1       -0.0261
      6 C           6.4536    8.4293   13.6061 C.ar    1  UNL1       -0.0568
      7 H           6.1591    8.5212   12.5689 H       1  UNL1        0.0621
      8 C           7.5733    7.6913   13.9299 C.ar    1  UNL1       -0.0614
      9 H           8.1480    7.2114   13.1512 H       1  UNL1        0.0618
     10 C           7.9616    7.5759   15.2534 C.ar    1  UNL1       -0.0600
     11 H           8.8428    7.0123   15.5196 H       1  UNL1        0.0618
     12 C           7.2086    8.1883   16.2429 C.ar    1  UNL1       -0.0404
     13 H           7.5206    8.0764   17.2699 H       1  UNL1        0.0636
     14 N           5.2208    9.4865   16.9509 N.pl3   1  UNL1       -0.3358
     15 C           5.5025   10.9066   17.1738 C.3     1  UNL1        0.0004
     16 H           6.4453   11.0396   17.7223 H       1  UNL1        0.0428
     17 H           4.6923   11.3484   17.7542 H       1  UNL1        0.0428
     18 H           5.5919   11.4338   16.2274 H       1  UNL1        0.0428
     19 C           5.2837    8.7955   18.2399 C.3     1  UNL1        0.0004
     20 H           5.1979    7.7199   18.0931 H       1  UNL1        0.0428
     21 H           4.4540    9.1376   18.8604 H       1  UNL1        0.0428
     22 H           6.2142    9.0063   18.7838 H       1  UNL1        0.0428
@<TRIPOS>BOND
     1     7     6    1
     2     2     1    1
     3     9     8    1
     4     6     8   ar
     5     6     5   ar
     6     8    10   ar
     7     1     3    1
     8     1     5    1
     9     5     4   ar
    10    10    11    1
    11    10    12   ar
    12     4    12   ar
    13     4    14    1
    14    18    15    1
    15    12    13    1
    16    14    15    1
    17    14    19    1
    18    15    16    1
    19    15    17    1
    20    20    19    1
    21    19    22    1
    22    19    21    1
