@<TRIPOS>MOLECULE
1
 22 22 0 0 0
SMALL
GASTEIGER

@<TRIPOS>ATOM
      1 C           2.7927    6.5859   16.7101 C.3     1  UNL1       -0.0219
      2 H           3.8253    6.3314   16.4592 H       1  UNL1        0.0317
      3 H           2.6422    6.4694   17.7861 H       1  UNL1        0.0317
      4 C           1.8932    5.6821   14.5394 C.ar    1  UNL1        0.0324
      5 C           1.8094    5.8168   15.9507 C.ar    1  UNL1       -0.0261
      6 C           0.7087    5.2287   16.5910 C.ar    1  UNL1       -0.0568
      7 H           0.6189    5.3338   17.6641 H       1  UNL1        0.0621
      8 C          -0.2537    4.5307   15.8916 C.ar    1  UNL1       -0.0614
      9 H          -1.0872    4.0880   16.4171 H       1  UNL1        0.0618
     10 C          -0.1462    4.3927   14.5184 C.ar    1  UNL1       -0.0600
     11 H          -0.8891    3.8409   13.9627 H       1  UNL1        0.0618
     12 C           0.9230    4.9734   13.8526 C.ar    1  UNL1       -0.0404
     13 H           0.9844    4.8675   12.7802 H       1  UNL1        0.0636
     14 N           2.9661    6.3787   13.8763 N.pl3   1  UNL1       -0.3358
     15 C           4.2012    5.5949   13.8864 C.3     1  UNL1        0.0004
     16 H           4.3667    5.1556   14.8664 H       1  UNL1        0.0428
     17 H           5.0455    6.2403   13.6420 H       1  UNL1        0.0428
     18 H           4.1573    4.7751   13.1560 H       1  UNL1        0.0428
     19 C           2.6766    6.7834   12.5041 C.3     1  UNL1        0.0004
     20 H           2.6664    5.9378   11.8028 H       1  UNL1        0.0428
     21 H           3.4581    7.4731   12.1819 H       1  UNL1        0.0428
     22 H           1.7133    7.2927   12.4622 H       1  UNL1        0.0428
@<TRIPOS>BOND
     1    20    19    1
     2    21    19    1
     3    22    19    1
     4    19    14    1
     5    13    12    1
     6    18    15    1
     7    17    15    1
     8    12    10   ar
     9    12     4   ar
    10    14    15    1
    11    14     4    1
    12    15    16    1
    13    11    10    1
    14    10     8   ar
    15     4     5   ar
    16     8     9    1
    17     8     6   ar
    18     5     6   ar
    19     5     1    1
    20     2     1    1
    21     6     7    1
    22     1     3    1
