@<TRIPOS>MOLECULE
2
 16 15 0 0 0
SMALL
GASTEIGER

@<TRIPOS>ATOM
      1 SI         13.2616   14.1793    3.3476 Si      1  UNL1        0.0000
      2 C          11.8844   15.1710    4.1711 C.3     1  UNL1        0.0000
      3 H          12.0221   16.2254    3.8743 H       1  UNL1        0.0000
      4 H          12.0789   15.1625    5.2564 H       1  UNL1        0.0000
      5 C          12.7531   13.8308    1.5236 C.3     1  UNL1        0.0000
      6 H          11.6661   13.8137    1.4161 H       1  UNL1        0.0000
      7 H          13.1457   12.8848    1.1618 H       1  UNL1        0.0000
      8 H          13.1282   14.6044    0.8614 H       1  UNL1        0.0000
      9 C          14.9842   15.0190    3.2715 C.3     1  UNL1        0.0000
     10 H          14.9354   15.9644    2.7392 H       1  UNL1        0.0000
     11 H          15.7145   14.3953    2.7640 H       1  UNL1        0.0000
     12 H          15.3662   15.2257    4.2668 H       1  UNL1        0.0000
     13 C          13.5028   12.5087    4.2598 C.3     1  UNL1        0.0000
     14 H          12.5622   12.1181    4.6385 H       1  UNL1        0.0000
     15 H          14.1678   12.6303    5.1087 H       1  UNL1        0.0000
     16 H          13.9411   11.7540    3.6138 H       1  UNL1        0.0000
@<TRIPOS>BOND
     1     8     5    1
     2     7     5    1
     3     6     5    1
     4     5     1    1
     5    10     9    1
     6    11     9    1
     7     9     1    1
     8     9    12    1
     9     1     2    1
    10     1    13    1
    11    16    13    1
    12     3     2    1
    13     2     4    1
    14    13    14    1
    15    13    15    1
