@<TRIPOS>MOLECULE
18
 34 36 0 0 0
SMALL
GASTEIGER

@<TRIPOS>ATOM
      1 SI          8.8062   15.5286    7.0720 Si      1  UNL1        0.0000
      2 C          10.5422   12.4676    6.5580 C.ar    1  UNL1        0.0000
      3 H          11.2711   13.2310    6.7943 H       1  UNL1        0.0000
      4 C          10.8545   11.1349    6.7371 C.ar    1  UNL1        0.0000
      5 H          11.8281   10.8613    7.1191 H       1  UNL1        0.0000
      6 C           9.9376   10.1273    6.4338 C.ar    1  UNL1        0.0000
      7 H          10.2130    9.0935    6.5856 H       1  UNL1        0.0000
      8 C           8.6856   10.4448    5.9459 C.ar    1  UNL1        0.0000
      9 H           7.9724    9.6641    5.7171 H       1  UNL1        0.0000
     10 C           5.9330   11.8597    4.8716 C.ar    1  UNL1        0.0000
     11 H           5.7820   10.7888    4.8660 H       1  UNL1        0.0000
     12 C           4.9202   12.7101    4.4770 C.ar    1  UNL1        0.0000
     13 H           3.9726   12.3065    4.1507 H       1  UNL1        0.0000
     14 C           5.1025   14.0936    4.5089 C.ar    1  UNL1        0.0000
     15 H           4.2881   14.7381    4.2091 H       1  UNL1        0.0000
     16 C           6.2960   14.6487    4.9226 C.ar    1  UNL1        0.0000
     17 H           6.4154   15.7248    4.9537 H       1  UNL1        0.0000
     18 C           8.6923   14.1301    5.7912 C.3     1  UNL1        0.0000
     19 C           9.2795   12.8178    6.0685 C.ar    1  UNL1        0.0000
     20 C           8.3494   11.7816    5.7645 C.ar    1  UNL1        0.0000
     21 C           7.1441   12.3999    5.2910 C.ar    1  UNL1        0.0000
     22 C           7.3475   13.8092    5.3069 C.ar    1  UNL1        0.0000
     23 C           7.2915   15.4757    8.2413 C.3     1  UNL1        0.0000
     24 H           6.3615   15.4696    7.6815 H       1  UNL1        0.0000
     25 H           7.2714   16.3315    8.9089 H       1  UNL1        0.0000
     26 H           7.3053   14.5790    8.8536 H       1  UNL1        0.0000
     27 C           8.8324   17.2278    6.1757 C.3     1  UNL1        0.0000
     28 H           9.5423   17.2316    5.3446 H       1  UNL1        0.0000
     29 H           9.1203   18.0203    6.8588 H       1  UNL1        0.0000
     30 H           7.8568   17.4891    5.7784 H       1  UNL1        0.0000
     31 C          10.3660   15.4590    8.1740 C.3     1  UNL1        0.0000
     32 H          10.4347   14.5207    8.7133 H       1  UNL1        0.0000
     33 H          10.3308   16.2562    8.9098 H       1  UNL1        0.0000
     34 H          11.2784   15.5882    7.6003 H       1  UNL1        0.0000
@<TRIPOS>BOND
     1    13    12    1
     2    15    14    1
     3    12    14   ar
     4    12    10   ar
     5    14    16   ar
     6    11    10    1
     7    10    21   ar
     8    16    17    1
     9    16    22   ar
    10    21    22   ar
    11    21    20    1
    12    22    18    1
    13    28    27    1
    14     9     8    1
    15    20     8   ar
    16    20    19   ar
    17    30    27    1
    18    18    19    1
    19    18     1    1
    20     8     6   ar
    21    19     2   ar
    22    27    29    1
    23    27     1    1
    24     6     7    1
    25     6     4   ar
    26     2     4   ar
    27     2     3    1
    28     4     5    1
    29     1    31    1
    30     1    23    1
    31    34    31    1
    32    24    23    1
    33    31    32    1
    34    31    33    1
    35    23    26    1
    36    23    25    1
