@<TRIPOS>MOLECULE
2
 16 15 0 0 0
SMALL
GASTEIGER

@<TRIPOS>ATOM
      1 SI          9.0139   16.3154    0.6354 Si      1  UNL1        0.0000
      2 C           8.3943   15.8049    2.3438 C.3     1  UNL1        0.0000
      3 H           7.4499   15.2473    2.2066 H       1  UNL1        0.0000
      4 H           8.0994   16.7369    2.8589 H       1  UNL1        0.0000
      5 C           7.8761   17.5244   -0.3280 C.3     1  UNL1        0.0000
      6 H           6.8933   17.0939   -0.4965 H       1  UNL1        0.0000
      7 H           8.2904   17.7823   -1.2982 H       1  UNL1        0.0000
      8 H           7.7355   18.4496    0.2228 H       1  UNL1        0.0000
      9 C           9.2304   14.7801   -0.4970 C.3     1  UNL1        0.0000
     10 H           9.8597   14.0260   -0.0316 H       1  UNL1        0.0000
     11 H           9.6946   15.0527   -1.4393 H       1  UNL1        0.0000
     12 H           8.2729   14.3226   -0.7288 H       1  UNL1        0.0000
     13 C          10.7188   17.1705    0.8268 C.3     1  UNL1        0.0000
     14 H          10.6229   18.1069    1.3683 H       1  UNL1        0.0000
     15 H          11.1644   17.3974   -0.1366 H       1  UNL1        0.0000
     16 H          11.4148   16.5406    1.3776 H       1  UNL1        0.0000
@<TRIPOS>BOND
     1    11     9    1
     2     7     5    1
     3    12     9    1
     4     9    10    1
     5     9     1    1
     6     6     5    1
     7     5     8    1
     8     5     1    1
     9    15    13    1
    10     1    13    1
    11     1     2    1
    12    13    14    1
    13    13    16    1
    14     3     2    1
    15     2     4    1
