@<TRIPOS>MOLECULE
1
 14 14 0 0 0
SMALL
GASTEIGER

@<TRIPOS>ATOM
      1 C           7.3614   11.6406    3.1963 C.3     1  UNL1       -0.0237
      2 H           8.1789   11.2727    3.8365 H       1  UNL1        0.0316
      3 H           7.6981   11.7014    2.1545 H       1  UNL1        0.0316
      4 C           6.8230   12.9110    3.6817 C.ar    1  UNL1       -0.0470
      5 C           6.5621   13.0944    5.0600 C.ar    1  UNL1       -0.0586
      6 H           6.8040   12.2865    5.7534 H       1  UNL1        0.0620
      7 C           6.0552   14.2880    5.5344 C.ar    1  UNL1       -0.0615
      8 H           5.8907   14.4194    6.5962 H       1  UNL1        0.0618
      9 C           5.7764   15.3361    4.6666 C.ar    1  UNL1       -0.0617
     10 H           5.3808   16.2670    5.0438 H       1  UNL1        0.0618
     11 C           6.0227   15.1757    3.3119 C.ar    1  UNL1       -0.0615
     12 H           5.8231   15.9914    2.6308 H       1  UNL1        0.0618
     13 C           6.5425   13.9911    2.8267 C.ar    1  UNL1       -0.0586
     14 H           6.7596   13.8941    1.7695 H       1  UNL1        0.0620
@<TRIPOS>BOND
     1    14    13    1
     2     3     1    1
     3    12    11    1
     4    13    11   ar
     5    13     4   ar
     6     1     4    1
     7     1     2    1
     8    11     9   ar
     9     4     5   ar
    10     9    10    1
    11     9     7   ar
    12     5     7   ar
    13     5     6    1
    14     7     8    1
