@<TRIPOS>MOLECULE
1
 14 14 0 0 0
SMALL
GASTEIGER

@<TRIPOS>ATOM
      1 C           5.1421    2.2337    4.1828 C.3     1  UNL1       -0.0237
      2 H           5.5150    1.9130    5.1632 H       1  UNL1        0.0316
      3 H           5.2993    1.4487    3.4293 H       1  UNL1        0.0316
      4 C           5.6711    3.5160    3.7590 C.ar    1  UNL1       -0.0470
      5 C           6.2517    4.4375    4.6505 C.ar    1  UNL1       -0.0586
      6 H           6.3770    4.1596    5.6907 H       1  UNL1        0.0620
      7 C           6.6940    5.6723    4.2176 C.ar    1  UNL1       -0.0615
      8 H           7.1247    6.3640    4.9280 H       1  UNL1        0.0618
      9 C           6.6040    6.0249    2.8817 C.ar    1  UNL1       -0.0617
     10 H           6.9574    6.9881    2.5457 H       1  UNL1        0.0618
     11 C           6.0778    5.1132    1.9743 C.ar    1  UNL1       -0.0615
     12 H           6.0557    5.3627    0.9211 H       1  UNL1        0.0618
     13 C           5.6104    3.8890    2.4000 C.ar    1  UNL1       -0.0586
     14 H           5.2163    3.1682    1.6882 H       1  UNL1        0.0620
@<TRIPOS>BOND
     1    12    11    1
     2    14    13    1
     3    11    13   ar
     4    11     9   ar
     5    13     4   ar
     6    10     9    1
     7     9     7   ar
     8     3     1    1
     9     4     1    1
    10     4     5   ar
    11     1     2    1
    12     7     5   ar
    13     7     8    1
    14     5     6    1
