@<TRIPOS>MOLECULE
1
 14 14 0 0 0
SMALL
GASTEIGER

@<TRIPOS>ATOM
      1 C           0.9271    2.7380    5.1900 C.3     1  UNL1       -0.0237
      2 H           1.0207    2.3533    6.2151 H       1  UNL1        0.0316
      3 H           0.5585    3.7747    5.2002 H       1  UNL1        0.0316
      4 C           0.1150    1.8704    4.3452 C.ar    1  UNL1       -0.0470
      5 C          -0.5779    2.3778    3.2298 C.ar    1  UNL1       -0.0586
      6 H          -0.5246    3.4371    3.0147 H       1  UNL1        0.0620
      7 C          -1.3369    1.5566    2.4228 C.ar    1  UNL1       -0.0615
      8 H          -1.8775    1.9803    1.5885 H       1  UNL1        0.0618
      9 C          -1.4260    0.1955    2.6784 C.ar    1  UNL1       -0.0617
     10 H          -2.0126   -0.4461    2.0378 H       1  UNL1        0.0618
     11 C          -0.7741   -0.3241    3.7849 C.ar    1  UNL1       -0.0615
     12 H          -0.8587   -1.3778    4.0142 H       1  UNL1        0.0618
     13 C          -0.0393    0.4972    4.6156 C.ar    1  UNL1       -0.0586
     14 H           0.4085    0.0777    5.5092 H       1  UNL1        0.0620
@<TRIPOS>BOND
     1     8     7    1
     2    10     9    1
     3     7     9   ar
     4     7     5   ar
     5     9    11   ar
     6     6     5    1
     7     5     4   ar
     8    11    12    1
     9    11    13   ar
    10     4    13   ar
    11     4     1    1
    12    13    14    1
    13     1     3    1
    14     1     2    1
