@<TRIPOS>MOLECULE
2
 16 15 0 0 0
SMALL
GASTEIGER

@<TRIPOS>ATOM
      1 SI          8.5553    2.6445    6.5922 Si      1  UNL1        0.0000
      2 C           8.1383    3.7837    5.1533 C.3     1  UNL1        0.0000
      3 H           8.7143    3.4280    4.2844 H       1  UNL1        0.0000
      4 H           8.5497    4.7802    5.3887 H       1  UNL1        0.0000
      5 C          10.4223    2.4425    6.9864 C.3     1  UNL1        0.0000
      6 H          10.9546    2.0232    6.1379 H       1  UNL1        0.0000
      7 H          10.5867    1.7830    7.8341 H       1  UNL1        0.0000
      8 H          10.8848    3.3973    7.2196 H       1  UNL1        0.0000
      9 C           7.7456    3.3349    8.1969 C.3     1  UNL1        0.0000
     10 H           7.0057    4.0975    7.9587 H       1  UNL1        0.0000
     11 H           8.4901    3.7955    8.8383 H       1  UNL1        0.0000
     12 H           7.2600    2.5607    8.7840 H       1  UNL1        0.0000
     13 C           7.8785    0.8868    6.2205 C.3     1  UNL1        0.0000
     14 H           7.0934    0.9245    5.4682 H       1  UNL1        0.0000
     15 H           7.4767    0.4009    7.1041 H       1  UNL1        0.0000
     16 H           8.6663    0.2489    5.8343 H       1  UNL1        0.0000
@<TRIPOS>BOND
     1     3     2    1
     2     2     4    1
     3     2     1    1
     4    14    13    1
     5    16    13    1
     6     6     5    1
     7    13     1    1
     8    13    15    1
     9     1     5    1
    10     1     9    1
    11     5     8    1
    12     5     7    1
    13    10     9    1
    14     9    12    1
    15     9    11    1
