@<TRIPOS>MOLECULE
2
 16 15 0 0 0
SMALL
GASTEIGER

@<TRIPOS>ATOM
      1 SI         -0.4859    6.4993   -0.2202 Si      1  UNL1        0.0000
      2 C          -0.5639    8.0289    0.8826 C.3     1  UNL1        0.0000
      3 H          -1.5346    8.0202    1.4095 H       1  UNL1        0.0000
      4 H          -0.6142    8.8983    0.2004 H       1  UNL1        0.0000
      5 C           1.1439    6.4765   -1.2200 C.3     1  UNL1        0.0000
      6 H           1.2668    7.3982   -1.7804 H       1  UNL1        0.0000
      7 H           1.1622    5.6569   -1.9316 H       1  UNL1        0.0000
      8 H           2.0057    6.3698   -0.5684 H       1  UNL1        0.0000
      9 C          -0.5613    4.8870    0.8200 C.3     1  UNL1        0.0000
     10 H           0.2749    4.8184    1.5102 H       1  UNL1        0.0000
     11 H          -0.5201    4.0133    0.1779 H       1  UNL1        0.0000
     12 H          -1.4800    4.8190    1.3953 H       1  UNL1        0.0000
     13 C          -1.9378    6.3854   -1.4719 C.3     1  UNL1        0.0000
     14 H          -2.8975    6.3630   -0.9639 H       1  UNL1        0.0000
     15 H          -1.8730    5.4927   -2.0872 H       1  UNL1        0.0000
     16 H          -1.9436    7.2424   -2.1386 H       1  UNL1        0.0000
@<TRIPOS>BOND
     1    16    13    1
     2    15    13    1
     3     7     5    1
     4     6     5    1
     5    13    14    1
     6    13     1    1
     7     5     8    1
     8     5     1    1
     9     1     9    1
    10     1     2    1
    11    11     9    1
    12     4     2    1
    13     9    12    1
    14     9    10    1
    15     2     3    1
