@<TRIPOS>MOLECULE
2
 16 15 0 0 0
SMALL
GASTEIGER

@<TRIPOS>ATOM
      1 SI          6.8199    2.4679    1.4654 Si      1  UNL1        0.0000
      2 C           5.4904    2.8247    2.7584 C.3     1  UNL1        0.0000
      3 H           5.0852    1.8591    3.0968 H       1  UNL1        0.0000
      4 H           4.6559    3.3481    2.2614 H       1  UNL1        0.0000
      5 C           7.9038    4.0296    1.2110 C.3     1  UNL1        0.0000
      6 H           8.0334    4.5733    2.1495 H       1  UNL1        0.0000
      7 H           7.4456    4.7062    0.4976 H       1  UNL1        0.0000
      8 H           8.8893    3.7766    0.8326 H       1  UNL1        0.0000
      9 C           6.1386    1.9739   -0.2602 C.3     1  UNL1        0.0000
     10 H           5.5524    1.0613   -0.2096 H       1  UNL1        0.0000
     11 H           6.9396    1.8089   -0.9745 H       1  UNL1        0.0000
     12 H           5.4972    2.7528   -0.6614 H       1  UNL1        0.0000
     13 C           7.9412    1.0365    2.0692 C.3     1  UNL1        0.0000
     14 H           8.3327    1.2381    3.0617 H       1  UNL1        0.0000
     15 H           8.7842    0.8859    1.4025 H       1  UNL1        0.0000
     16 H           7.3933    0.1008    2.1158 H       1  UNL1        0.0000
@<TRIPOS>BOND
     1    11     9    1
     2    12     9    1
     3     9    10    1
     4     9     1    1
     5     7     5    1
     6     8     5    1
     7     5     1    1
     8     5     6    1
     9    15    13    1
    10     1    13    1
    11     1     2    1
    12    13    16    1
    13    13    14    1
    14     4     2    1
    15     2     3    1
