@<TRIPOS>MOLECULE
2
 16 15 0 0 0
SMALL
GASTEIGER

@<TRIPOS>ATOM
      1 SI          4.2967    7.4191    2.1497 Si      1  UNL1        0.0000
      2 C           3.0048    8.6274    1.4996 C.3     1  UNL1        0.0000
      3 H           2.9206    8.4870    0.4109 H       1  UNL1        0.0000
      4 H           3.4184    9.6418    1.6324 H       1  UNL1        0.0000
      5 C           4.5271    7.7558    4.0280 C.3     1  UNL1        0.0000
      6 H           5.2884    8.5121    4.1883 H       1  UNL1        0.0000
      7 H           4.8308    6.8690    4.5765 H       1  UNL1        0.0000
      8 H           3.6054    8.1324    4.4703 H       1  UNL1        0.0000
      9 C           6.0367    7.5328    1.3528 C.3     1  UNL1        0.0000
     10 H           5.9924    7.3241    0.2880 H       1  UNL1        0.0000
     11 H           6.7314    6.8252    1.7967 H       1  UNL1        0.0000
     12 H           6.4585    8.5262    1.4729 H       1  UNL1        0.0000
     13 C           3.6879    5.6150    1.8967 C.3     1  UNL1        0.0000
     14 H           4.0112    4.9561    2.6967 H       1  UNL1        0.0000
     15 H           4.0756    5.2071    0.9692 H       1  UNL1        0.0000
     16 H           2.6027    5.5710    1.8420 H       1  UNL1        0.0000
@<TRIPOS>BOND
     1    10     9    1
     2     3     2    1
     3    15    13    1
     4     9    12    1
     5     9    11    1
     6     9     1    1
     7     2     4    1
     8     2     1    1
     9    16    13    1
    10    13     1    1
    11    13    14    1
    12     1     5    1
    13     5     6    1
    14     5     8    1
    15     5     7    1
