@<TRIPOS>MOLECULE
1
 15 14 0 0 0
SMALL
GASTEIGER

@<TRIPOS>ATOM
      1 C          -1.5393   -0.6887    3.8367 C.1     1  UNL1        0.0000
      2 C          -1.8668   -1.6585    3.1788 C.1     1  UNL1        0.0000
      3 SI         -2.3735   -3.1660    2.2294 Si      1  UNL1        0.0000
      4 C          -4.2831   -3.2538    2.1765 C.3     1  UNL1        0.0000
      5 H          -4.6273   -4.1245    1.6253 H       1  UNL1        0.0000
      6 H          -4.7044   -2.3748    1.6973 H       1  UNL1        0.0000
      7 H          -4.6998   -3.3131    3.1777 H       1  UNL1        0.0000
      8 C          -1.6814   -4.7054    3.1201 C.3     1  UNL1        0.0000
      9 H          -1.9996   -5.6255    2.6380 H       1  UNL1        0.0000
     10 H          -2.0127   -4.7402    4.1534 H       1  UNL1        0.0000
     11 H          -0.5956   -4.6934    3.1261 H       1  UNL1        0.0000
     12 C          -1.6846   -3.0798    0.4499 C.3     1  UNL1        0.0000
     13 H          -2.0550   -2.2046   -0.0757 H       1  UNL1        0.0000
     14 H          -1.9684   -3.9548   -0.1284 H       1  UNL1        0.0000
     15 H          -0.6000   -3.0255    0.4534 H       1  UNL1        0.0000
@<TRIPOS>BOND
     1    14    12    1
     2    13    12    1
     3    12    15    1
     4    12     3    1
     5     5     4    1
     6     6     4    1
     7     4     3    1
     8     4     7    1
     9     3     8    1
    10     3     2    1
    11     9     8    1
    12     8    11    1
    13     8    10    1
    14     2     1    3
