@<TRIPOS>MOLECULE
2
 15 14 0 0 0
SMALL
GASTEIGER

@<TRIPOS>ATOM
      1 SI          0.3984   -3.1669    8.0027 Si      1  UNL1        0.0000
      2 C          -0.4352   -0.6895    6.3951 C.1     1  UNL1        0.0000
      3 C          -0.1073   -1.6593    7.0528 C.1     1  UNL1        0.0000
      4 C           2.3078   -3.2563    8.0551 C.3     1  UNL1        0.0000
      5 H           2.6514   -4.1270    8.6068 H       1  UNL1        0.0000
      6 H           2.7301   -2.3774    8.5336 H       1  UNL1        0.0000
      7 H           2.7242   -3.3167    7.0539 H       1  UNL1        0.0000
      8 C          -0.2956   -4.7063    7.1136 C.3     1  UNL1        0.0000
      9 H           0.0207   -5.6262    7.5972 H       1  UNL1        0.0000
     10 H           0.0365   -4.7431    6.0806 H       1  UNL1        0.0000
     11 H          -1.3813   -4.6926    7.1066 H       1  UNL1        0.0000
     12 C          -0.2901   -3.0785    9.7823 C.3     1  UNL1        0.0000
     13 H           0.0810   -2.2031   10.3071 H       1  UNL1        0.0000
     14 H          -0.0069   -3.9532   10.3613 H       1  UNL1        0.0000
     15 H          -1.3747   -3.0234    9.7790 H       1  UNL1        0.0000
@<TRIPOS>BOND
     1    10     8    1
     2     2     3    3
     3     3     1    1
     4     7     4    1
     5    11     8    1
     6     8     9    1
     7     8     1    1
     8     1     4    1
     9     1    12    1
    10     4     6    1
    11     4     5    1
    12    15    12    1
    13    12    13    1
    14    12    14    1
