@<TRIPOS>MOLECULE
2
 16 15 0 0 0
SMALL
GASTEIGER

@<TRIPOS>ATOM
      1 SI         15.5662    3.4128    4.0012 Si      1  UNL1        0.0000
      2 C          14.2271    4.7550    3.9770 C.3     1  UNL1        0.0000
      3 H          14.6344    5.5999    3.3899 H       1  UNL1        0.0000
      4 H          14.1345    5.1490    5.0067 H       1  UNL1        0.0000
      5 C          16.0415    2.8173    5.7648 C.3     1  UNL1        0.0000
      6 H          16.1321    3.6408    6.4669 H       1  UNL1        0.0000
      7 H          16.9956    2.2991    5.7505 H       1  UNL1        0.0000
      8 H          15.3024    2.1244    6.1534 H       1  UNL1        0.0000
      9 C          14.9875    1.8571    3.0464 C.3     1  UNL1        0.0000
     10 H          13.9813    1.5739    3.3487 H       1  UNL1        0.0000
     11 H          15.6364    1.0060    3.2285 H       1  UNL1        0.0000
     12 H          14.9774    2.0377    1.9758 H       1  UNL1        0.0000
     13 C          17.1842    4.0082    3.1621 C.3     1  UNL1        0.0000
     14 H          16.9824    4.3742    2.1601 H       1  UNL1        0.0000
     15 H          17.9106    3.2061    3.0780 H       1  UNL1        0.0000
     16 H          17.6502    4.8160    3.7174 H       1  UNL1        0.0000
@<TRIPOS>BOND
     1    12     9    1
     2    14    13    1
     3     9    11    1
     4     9    10    1
     5     9     1    1
     6    15    13    1
     7    13    16    1
     8    13     1    1
     9     3     2    1
    10     2     1    1
    11     2     4    1
    12     1     5    1
    13     7     5    1
    14     5     8    1
    15     5     6    1
