@<TRIPOS>MOLECULE
2
 16 15 0 0 0
SMALL
GASTEIGER

@<TRIPOS>ATOM
      1 SI          4.2415    8.4626    8.7064 Si      1  UNL1        0.0000
      2 C           5.1850    6.8774    9.1375 C.3     1  UNL1        0.0000
      3 H           5.2387    6.8280   10.2389 H       1  UNL1        0.0000
      4 H           6.2370    7.0104    8.8191 H       1  UNL1        0.0000
      5 C           4.1776    8.7508    6.8075 C.3     1  UNL1        0.0000
      6 H           5.1120    9.1469    6.4202 H       1  UNL1        0.0000
      7 H           3.3920    9.4518    6.5396 H       1  UNL1        0.0000
      8 H           3.9705    7.8171    6.2870 H       1  UNL1        0.0000
      9 C           2.4355    8.2971    9.3335 C.3     1  UNL1        0.0000
     10 H           1.9600    7.4201    8.9004 H       1  UNL1        0.0000
     11 H           1.8363    9.1639    9.0718 H       1  UNL1        0.0000
     12 H           2.3987    8.1887   10.4134 H       1  UNL1        0.0000
     13 C           4.9630   10.0683    9.4792 C.3     1  UNL1        0.0000
     14 H           4.9532   10.0183   10.5637 H       1  UNL1        0.0000
     15 H           4.3923   10.9448    9.1877 H       1  UNL1        0.0000
     16 H           5.9916   10.2318    9.1712 H       1  UNL1        0.0000
@<TRIPOS>BOND
     1     8     5    1
     2     6     5    1
     3     7     5    1
     4     5     1    1
     5     1     2    1
     6     1     9    1
     7     1    13    1
     8     4     2    1
     9    10     9    1
    10    11     9    1
    11     2     3    1
    12    16    13    1
    13    15    13    1
    14     9    12    1
    15    13    14    1
