@<TRIPOS>MOLECULE
2
 16 15 0 0 0
SMALL
GASTEIGER

@<TRIPOS>ATOM
      1 SI          4.1228    2.5058   11.2613 Si      1  UNL1        0.0000
      2 C           3.9817    2.8075    9.3998 C.3     1  UNL1        0.0000
      3 H           2.9367    2.5521    9.1255 H       1  UNL1        0.0000
      4 H           4.6157    2.0495    8.8946 H       1  UNL1        0.0000
      5 C           5.9454    2.2978   11.8181 C.3     1  UNL1        0.0000
      6 H           6.4793    1.5895   11.1924 H       1  UNL1        0.0000
      7 H           6.0018    1.9370   12.8405 H       1  UNL1        0.0000
      8 H           6.4778    3.2434   11.7775 H       1  UNL1        0.0000
      9 C           3.1786    0.9414   11.8617 C.3     1  UNL1        0.0000
     10 H           2.1303    0.9855   11.5796 H       1  UNL1        0.0000
     11 H           3.2209    0.8384   12.9420 H       1  UNL1        0.0000
     12 H           3.5947    0.0350   11.4315 H       1  UNL1        0.0000
     13 C           3.4086    3.9928   12.2398 C.3     1  UNL1        0.0000
     14 H           3.7262    4.9357   11.7964 H       1  UNL1        0.0000
     15 H           3.7409    3.9844   13.2731 H       1  UNL1        0.0000
     16 H           2.3237    3.9779   12.2501 H       1  UNL1        0.0000
@<TRIPOS>BOND
     1     4     2    1
     2     3     2    1
     3     2     1    1
     4     6     5    1
     5     1     5    1
     6     1     9    1
     7     1    13    1
     8    12     9    1
     9    10     9    1
    10     8     5    1
    11    14    13    1
    12     5     7    1
    13     9    11    1
    14    13    16    1
    15    13    15    1
