@<TRIPOS>MOLECULE
2
 16 15 0 0 0
SMALL
GASTEIGER

@<TRIPOS>ATOM
      1 SI         10.9259    3.3001   -0.5692 Si      1  UNL1        0.0000
      2 C          12.2757    3.5777    0.7323 C.3     1  UNL1        0.0000
      3 H          13.0081    4.2681    0.2677 H       1  UNL1        0.0000
      4 H          12.8245    2.6201    0.7987 H       1  UNL1        0.0000
      5 C          10.2752    1.4932   -0.5450 C.3     1  UNL1        0.0000
      6 H          11.0873    0.7848   -0.6779 H       1  UNL1        0.0000
      7 H           9.5649    1.3256   -1.3496 H       1  UNL1        0.0000
      8 H           9.7772    1.2482    0.3875 H       1  UNL1        0.0000
      9 C          11.5606    3.6013   -2.3589 C.3     1  UNL1        0.0000
     10 H          11.9503    4.6090   -2.4736 H       1  UNL1        0.0000
     11 H          10.7715    3.4713   -3.0936 H       1  UNL1        0.0000
     12 H          12.3608    2.9130   -2.6141 H       1  UNL1        0.0000
     13 C           9.4154    4.4781   -0.3525 C.3     1  UNL1        0.0000
     14 H           9.3910    4.8994    0.6517 H       1  UNL1        0.0000
     15 H           8.4749    3.9629   -0.5282 H       1  UNL1        0.0000
     16 H           9.4590    5.3083   -1.0511 H       1  UNL1        0.0000
@<TRIPOS>BOND
     1    11     9    1
     2    12     9    1
     3    10     9    1
     4     9     1    1
     5     7     5    1
     6    16    13    1
     7     6     5    1
     8     1     5    1
     9     1    13    1
    10     1     2    1
    11     5     8    1
    12    15    13    1
    13    13    14    1
    14     3     2    1
    15     2     4    1
