@<TRIPOS>MOLECULE
2
 22 22 0 0 0
SMALL
GASTEIGER

@<TRIPOS>ATOM
      1 N          -1.3111    8.4307   11.5769 N.3     1  UNL1       -0.2998
      2 C          -0.6095    7.1995   11.1723 C.3     1  UNL1        0.0548
      3 H          -0.5659    7.1575   10.0561 H       1  UNL1        0.0531
      4 C          -1.2998    5.9803   11.6673 C.ar    1  UNL1       -0.0285
      5 C          -1.9655    5.9660   12.9040 C.ar    1  UNL1       -0.0570
      6 C          -2.6209    4.8342   13.3424 C.ar    1  UNL1       -0.0615
      7 H          -3.1410    4.8525   14.2899 H       1  UNL1        0.0618
      8 C          -2.6206    3.6772   12.5763 C.ar    1  UNL1       -0.0617
      9 H          -3.1441    2.7950   12.9147 H       1  UNL1        0.0618
     10 C          -1.9524    3.6657   11.3629 C.ar    1  UNL1       -0.0615
     11 H          -1.9474    2.7700   10.7577 H       1  UNL1        0.0618
     12 C          -1.3119    4.8017   10.9080 C.ar    1  UNL1       -0.0570
     13 H          -0.8232    4.7895    9.9397 H       1  UNL1        0.0621
     14 C          -0.5948    9.6308   11.1834 C.3     1  UNL1       -0.0124
     15 H          -0.4511    9.6957   10.0901 H       1  UNL1        0.0391
     16 H           0.3870    9.6609   11.6727 H       1  UNL1        0.0391
     17 H          -1.1658   10.5035   11.5033 H       1  UNL1        0.0391
     18 C          -2.6556    8.4813   11.0162 C.3     1  UNL1       -0.0124
     19 H          -2.6439    8.5432    9.9164 H       1  UNL1        0.0391
     20 H          -3.1789    9.3539   11.4076 H       1  UNL1        0.0391
     21 H          -3.2050    7.5885   11.3061 H       1  UNL1        0.0391
     22 H          -1.9687    6.8654   13.5063 H       1  UNL1        0.0621
@<TRIPOS>BOND
     1    19    18    1
     2    13    12    1
     3     3     2    1
     4    15    14    1
     5    11    10    1
     6    12    10   ar
     7    12     4   ar
     8    18    21    1
     9    18    20    1
    10    18     1    1
    11     2     1    1
    12     2     4    1
    13    14    17    1
    14    14     1    1
    15    14    16    1
    16    10     8   ar
    17     4     5   ar
    18     8     9    1
    19     8     6   ar
    20     5     6   ar
    21     5    22    1
    22     6     7    1
