@<TRIPOS>MOLECULE
2
 22 22 0 0 0
SMALL
GASTEIGER

@<TRIPOS>ATOM
      1 N           3.7893    7.5151   10.3050 N.3     1  UNL1       -0.2998
      2 C           3.1204    8.2625   11.3808 C.3     1  UNL1        0.0548
      3 H           2.8509    9.2812   11.0084 H       1  UNL1        0.0531
      4 C           3.9673    8.3995   12.5910 C.ar    1  UNL1       -0.0285
      5 C           3.8426    9.5165   13.4311 C.ar    1  UNL1       -0.0570
      6 H           3.1441   10.3033   13.1660 H       1  UNL1        0.0621
      7 C           4.6032    9.6376   14.5770 C.ar    1  UNL1       -0.0615
      8 H           4.4848   10.5074   15.2079 H       1  UNL1        0.0618
      9 C           5.5304    8.6625   14.9096 C.ar    1  UNL1       -0.0617
     10 H           6.1340    8.7637   15.7993 H       1  UNL1        0.0618
     11 C           5.6807    7.5588   14.0825 C.ar    1  UNL1       -0.0615
     12 H           6.4149    6.8035   14.3272 H       1  UNL1        0.0618
     13 C           4.9092    7.4202   12.9466 C.ar    1  UNL1       -0.0570
     14 C           4.9798    8.2135    9.8361 C.3     1  UNL1       -0.0124
     15 H           4.7337    9.1728    9.3535 H       1  UNL1        0.0391
     16 H           5.5072    7.5878    9.1159 H       1  UNL1        0.0391
     17 H           5.6418    8.4100   10.6763 H       1  UNL1        0.0391
     18 C           2.9136    7.2728    9.1725 C.3     1  UNL1       -0.0124
     19 H           2.5573    8.2096    8.7082 H       1  UNL1        0.0391
     20 H           2.0431    6.6814    9.4860 H       1  UNL1        0.0391
     21 H           3.4613    6.7069    8.4176 H       1  UNL1        0.0391
     22 H           5.0233    6.5539   12.3084 H       1  UNL1        0.0621
@<TRIPOS>BOND
     1    21    18    1
     2    19    18    1
     3    16    14    1
     4    18    20    1
     5    18     1    1
     6    15    14    1
     7    14     1    1
     8    14    17    1
     9     1     2    1
    10     3     2    1
    11     2     4    1
    12    22    13    1
    13     4    13   ar
    14     4     5   ar
    15    13    11   ar
    16     6     5    1
    17     5     7   ar
    18    11    12    1
    19    11     9   ar
    20     7     9   ar
    21     7     8    1
    22     9    10    1
