@<TRIPOS>MOLECULE
2
 16 15 0 0 0
SMALL
GASTEIGER

@<TRIPOS>ATOM
      1 SI         10.7655    5.2269    4.5021 Si      1  UNL1        0.0000
      2 C          10.8626    3.8637    3.1863 C.3     1  UNL1        0.0000
      3 C          10.7971    4.4968    6.2766 C.3     1  UNL1        0.0000
      4 C          12.3222    6.3480    4.3782 C.3     1  UNL1        0.0000
      5 C           9.2698    6.4269    4.4840 C.3     1  UNL1        0.0000
      6 H          11.4873    3.0776    3.6271 H       1  UNL1        0.0000
      7 H          11.4628    4.2519    2.3555 H       1  UNL1        0.0000
      8 H          11.0685    5.2646    6.9949 H       1  UNL1        0.0000
      9 H          11.5227    3.6953    6.3716 H       1  UNL1        0.0000
     10 H           9.8290    4.1049    6.5695 H       1  UNL1        0.0000
     11 H          12.3250    7.1036    5.1576 H       1  UNL1        0.0000
     12 H          13.2323    5.7662    4.4851 H       1  UNL1        0.0000
     13 H          12.3799    6.8666    3.4257 H       1  UNL1        0.0000
     14 H           9.2968    7.0669    5.3619 H       1  UNL1        0.0000
     15 H           9.2716    7.0744    3.6130 H       1  UNL1        0.0000
     16 H           8.3236    5.8954    4.5012 H       1  UNL1        0.0000
@<TRIPOS>BOND
     1     7     2    1
     2     2     6    1
     3     2     1    1
     4    13     4    1
     5    15     5    1
     6     4    12    1
     7     4     1    1
     8     4    11    1
     9     5    16    1
    10     5     1    1
    11     5    14    1
    12     1     3    1
    13     3     9    1
    14     3    10    1
    15     3     8    1
