@<TRIPOS>MOLECULE
3
 23 22 0 0 0
SMALL
GASTEIGER

@<TRIPOS>ATOM
      1 SI          1.5850   13.8356   13.1525 Si      1  UNL1        0.0000
      2 O          -0.0200   14.2196   13.0989 O.3     1  UNL1        0.0000
      3 C           1.5626   12.0118   12.6850 C.3     1  UNL1        0.0000
      4 H           2.1174   11.4481   13.4447 H       1  UNL1        0.0000
      5 H           2.1222   11.8751   11.7509 H       1  UNL1        0.0000
      6 C           2.6195   14.9248   11.9577 C.3     1  UNL1        0.0000
      7 H           3.6600   14.6169   11.9550 H       1  UNL1        0.0000
      8 H           2.5944   15.9713   12.2500 H       1  UNL1        0.0000
      9 H           2.2629   14.8604   10.9332 H       1  UNL1        0.0000
     10 C           2.2869   14.1765   14.9055 C.3     1  UNL1        0.0000
     11 H           3.3636   14.0471   14.9285 H       1  UNL1        0.0000
     12 H           1.8657   13.5067   15.6502 H       1  UNL1        0.0000
     13 H           2.0780   15.1937   15.2267 H       1  UNL1        0.0000
     14 C          -0.5911   15.4886   13.3419 C.3     1  UNL1        0.0000
     15 H           0.0876   16.0753   13.9754 H       1  UNL1        0.0000
     16 C          -0.7972   16.2336   12.0252 C.3     1  UNL1        0.0000
     17 H          -1.2505   17.2038   12.2103 H       1  UNL1        0.0000
     18 H          -1.4449   15.6592   11.3681 H       1  UNL1        0.0000
     19 H           0.1567   16.3779   11.5273 H       1  UNL1        0.0000
     20 C          -1.9114   15.3047   14.0860 C.3     1  UNL1        0.0000
     21 H          -2.6239   14.7730   13.4605 H       1  UNL1        0.0000
     22 H          -2.3301   16.2726   14.3485 H       1  UNL1        0.0000
     23 H          -1.7503   14.7317   14.9952 H       1  UNL1        0.0000
@<TRIPOS>BOND
     1     9     6    1
     2    18    16    1
     3    19    16    1
     4     5     3    1
     5     7     6    1
     6     6     8    1
     7     6     1    1
     8    16    17    1
     9    16    14    1
    10     3     1    1
    11     3     4    1
    12     2     1    1
    13     2    14    1
    14     1    10    1
    15    14    15    1
    16    14    20    1
    17    21    20    1
    18    20    22    1
    19    20    23    1
    20    10    11    1
    21    10    13    1
    22    10    12    1
