@<TRIPOS>MOLECULE
5
 28 27 0 0 0
SMALL
GASTEIGER

@<TRIPOS>ATOM
      1 SI         -1.6410    3.9917    1.7015 Si      1  UNL1        0.0000
      2 C          -2.7229    5.4207    1.0495 C.3     1  UNL1        0.0000
      3 C          -0.0056    4.7322    2.3640 C.3     1  UNL1        0.0000
      4 C          -1.2466    2.8139    0.2525 C.3     1  UNL1        0.0000
      5 C          -2.5191    1.7490    3.1068 C.3     1  UNL1        0.0000
      6 C          -2.5185    3.0516    3.1071 C.3     1  UNL1        0.0000
      7 H          -3.7024    5.0759    0.7331 H       1  UNL1        0.0000
      8 H          -2.8682    6.1835    1.8070 H       1  UNL1        0.0000
      9 H          -2.2503    5.8957    0.1951 H       1  UNL1        0.0000
     10 H           0.5971    3.9929    2.8835 H       1  UNL1        0.0000
     11 H           0.5941    5.1316    1.5511 H       1  UNL1        0.0000
     12 H          -0.1935    5.5437    3.0587 H       1  UNL1        0.0000
     13 H          -1.9158    2.9760   -0.5862 H       1  UNL1        0.0000
     14 H          -0.2311    2.9417   -0.1100 H       1  UNL1        0.0000
     15 H          -1.3580    1.7796    0.5660 H       1  UNL1        0.0000
     16 SI         -3.3963    3.9920    4.5124 Si      1  UNL1        0.0000
     17 C          -2.3149    5.4219    5.1633 C.3     1  UNL1        0.0000
     18 H          -1.3350    5.0779    5.4793 H       1  UNL1        0.0000
     19 H          -2.1705    6.1845    4.4055 H       1  UNL1        0.0000
     20 H          -2.7872    5.8969    6.0178 H       1  UNL1        0.0000
     21 C          -5.0322    4.7315    3.8501 C.3     1  UNL1        0.0000
     22 H          -5.6353    3.9916    3.3321 H       1  UNL1        0.0000
     23 H          -5.6312    5.1321    4.6630 H       1  UNL1        0.0000
     24 H          -4.8448    5.5420    3.1542 H       1  UNL1        0.0000
     25 C          -3.7897    2.8146    5.9620 C.3     1  UNL1        0.0000
     26 H          -3.1199    2.9771    6.8005 H       1  UNL1        0.0000
     27 H          -4.8051    2.9425    6.3250 H       1  UNL1        0.0000
     28 H          -3.6783    1.7802    5.6487 H       1  UNL1        0.0000
@<TRIPOS>BOND
     1    13     4    1
     2    14     4    1
     3     9     2    1
     4     4    15    1
     5     4     1    1
     6     7     2    1
     7     2     1    1
     8     2     8    1
     9    11     3    1
    10     1     3    1
    11     1     6    1
    12     3    10    1
    13     3    12    1
    14     5     6    1
    15     6    16    1
    16    24    21    1
    17    22    21    1
    18    21    16    1
    19    21    23    1
    20    19    17    1
    21    16    17    1
    22    16    25    1
    23    17    18    1
    24    17    20    1
    25    28    25    1
    26    25    27    1
    27    25    26    1
