@<TRIPOS>MOLECULE
2
 16 15 0 0 0
SMALL
GASTEIGER

@<TRIPOS>ATOM
      1 SI          5.2571    5.9113    0.1888 Si      1  UNL1        0.0000
      2 C           3.9360    6.8601    1.1310 C.3     1  UNL1        0.0000
      3 C           4.9915    5.8709   -1.7136 C.3     1  UNL1        0.0000
      4 C           7.0099    6.6766    0.4228 C.3     1  UNL1        0.0000
      5 C           5.3868    4.0677    0.7098 C.3     1  UNL1        0.0000
      6 H           3.0230    6.7447    0.5150 H       1  UNL1        0.0000
      7 H           4.1990    7.9270    1.0224 H       1  UNL1        0.0000
      8 H           4.0376    5.4101   -1.9536 H       1  UNL1        0.0000
      9 H           5.7646    5.3103   -2.2322 H       1  UNL1        0.0000
     10 H           4.9793    6.8739   -2.1311 H       1  UNL1        0.0000
     11 H           6.9823    7.7570    0.3156 H       1  UNL1        0.0000
     12 H           7.6961    6.2990   -0.3288 H       1  UNL1        0.0000
     13 H           7.4445    6.4532    1.3926 H       1  UNL1        0.0000
     14 H           5.8434    3.9398    1.6880 H       1  UNL1        0.0000
     15 H           5.9850    3.5026    0.0010 H       1  UNL1        0.0000
     16 H           4.4022    3.6113    0.7433 H       1  UNL1        0.0000
@<TRIPOS>BOND
     1     9     3    1
     2    10     3    1
     3     8     3    1
     4     3     1    1
     5    12     4    1
     6    15     5    1
     7     1     4    1
     8     1     5    1
     9     1     2    1
    10    11     4    1
    11     4    13    1
    12     6     2    1
    13     5    16    1
    14     5    14    1
    15     7     2    1
