@<TRIPOS>MOLECULE
2
 16 15 0 0 0
SMALL
GASTEIGER

@<TRIPOS>ATOM
      1 SI          0.8665    3.6845    2.3139 Si      1  UNL1        0.0000
      2 C           2.3498    4.3331    3.2759 C.3     1  UNL1        0.0000
      3 C           0.7703    1.7671    2.1753 C.3     1  UNL1        0.0000
      4 C          -0.7907    4.2189    3.1212 C.3     1  UNL1        0.0000
      5 C           0.8945    4.3458    0.5178 C.3     1  UNL1        0.0000
      6 H           3.2299    3.8365    2.8343 H       1  UNL1        0.0000
      7 H           2.2784    3.9223    4.2944 H       1  UNL1        0.0000
      8 H           1.6466    1.3696    1.6717 H       1  UNL1        0.0000
      9 H          -0.1021    1.4408    1.6167 H       1  UNL1        0.0000
     10 H           0.7211    1.3027    3.1560 H       1  UNL1        0.0000
     11 H          -0.9069    3.7921    4.1130 H       1  UNL1        0.0000
     12 H          -1.6374    3.8900    2.5268 H       1  UNL1        0.0000
     13 H          -0.8559    5.2987    3.2124 H       1  UNL1        0.0000
     14 H           0.7553    5.4231    0.4963 H       1  UNL1        0.0000
     15 H           0.1132    3.8990   -0.0894 H       1  UNL1        0.0000
     16 H           1.8455    4.1318    0.0400 H       1  UNL1        0.0000
@<TRIPOS>BOND
     1    15     5    1
     2    16     5    1
     3    14     5    1
     4     5     1    1
     5     9     3    1
     6     8     3    1
     7     3     1    1
     8     3    10    1
     9     1     4    1
    10     1     2    1
    11    12     4    1
    12     6     2    1
    13     4    13    1
    14     4    11    1
    15     2     7    1
