@<TRIPOS>MOLECULE
2
 16 15 0 0 0
SMALL
GASTEIGER

@<TRIPOS>ATOM
      1 SI          0.5748    9.6689    2.6893 Si      1  UNL1        0.0000
      2 C           0.9184    7.8488    3.0073 C.3     1  UNL1        0.0000
      3 C           0.7806   10.7926    4.2423 C.3     1  UNL1        0.0000
      4 C          -1.2160   10.0599    2.1074 C.3     1  UNL1        0.0000
      5 C           1.7397   10.3485    1.3223 C.3     1  UNL1        0.0000
      6 H           0.5466    7.3517    2.0884 H       1  UNL1        0.0000
      7 H           0.2066    7.5243    3.7861 H       1  UNL1        0.0000
      8 H           0.0887   10.5073    5.0292 H       1  UNL1        0.0000
      9 H           0.5646   11.8256    3.9860 H       1  UNL1        0.0000
     10 H           1.7822   10.7729    4.6636 H       1  UNL1        0.0000
     11 H          -1.4569    9.5046    1.2054 H       1  UNL1        0.0000
     12 H          -1.3597   11.1148    1.8894 H       1  UNL1        0.0000
     13 H          -1.9464    9.7812    2.8621 H       1  UNL1        0.0000
     14 H           2.4721    9.6007    1.0316 H       1  UNL1        0.0000
     15 H           2.2771   11.2385    1.6364 H       1  UNL1        0.0000
     16 H           1.1763   10.6104    0.4326 H       1  UNL1        0.0000
@<TRIPOS>BOND
     1    16     5    1
     2    14     5    1
     3    11     4    1
     4     5    15    1
     5     5     1    1
     6    12     4    1
     7     6     2    1
     8     4     1    1
     9     4    13    1
    10     1     2    1
    11     1     3    1
    12     2     7    1
    13     9     3    1
    14     3    10    1
    15     3     8    1
