@<TRIPOS>MOLECULE
1
 12 11 0 0 0
SMALL
GASTEIGER

@<TRIPOS>ATOM
      1 C          13.4698   11.6774   12.8862 C.3     1  UNL1        0.0212
      2 C          13.7350   13.0161   12.6525 C.2     1  UNL1       -0.0765
      3 H          12.9200   13.6030   12.2315 H       1  UNL1        0.0578
      4 C          14.9174   13.6290   12.9112 C.2     1  UNL1       -0.0790
      5 C          15.1240   15.0786   12.6310 C.3     1  UNL1       -0.0440
      6 H          14.2064   15.5658   12.3101 H       1  UNL1        0.0274
      7 H          15.8744   15.1995   11.8487 H       1  UNL1        0.0274
      8 H          15.5026   15.5829   13.5199 H       1  UNL1        0.0274
      9 C          16.0693   12.8911   13.4964 C.3     1  UNL1       -0.0440
     10 H          16.2247   13.1994   14.5316 H       1  UNL1        0.0274
     11 H          16.9839   13.1180   12.9506 H       1  UNL1        0.0274
     12 H          15.8973   11.8162   13.4732 H       1  UNL1        0.0274
@<TRIPOS>BOND
     1     7     5    1
     2     3     2    1
     3     6     5    1
     4     5     4    1
     5     5     8    1
     6     2     1    1
     7     2     4    2
     8     4     9    1
     9    11     9    1
    10    12     9    1
    11     9    10    1
