@<TRIPOS>MOLECULE
2
 16 15 0 0 0
SMALL
GASTEIGER

@<TRIPOS>ATOM
      1 SI         -0.9057   -3.3897    2.4414 Si      1  UNL1        0.0000
      2 C           0.5213   -3.0185    3.6042 C.3     1  UNL1        0.0000
      3 C          -0.3919   -2.8950    0.6595 C.3     1  UNL1        0.0000
      4 H           0.0697   -1.9059    0.6882 H       1  UNL1        0.0000
      5 H          -1.2452   -2.8465   -0.0091 H       1  UNL1        0.0000
      6 H           0.3189   -3.5917    0.2281 H       1  UNL1        0.0000
      7 C          -1.5887   -5.1792    2.3884 C.3     1  UNL1        0.0000
      8 H          -0.8108   -5.8865    2.1191 H       1  UNL1        0.0000
      9 H          -2.3919   -5.2818    1.6650 H       1  UNL1        0.0000
     10 H          -1.9782   -5.4751    3.3571 H       1  UNL1        0.0000
     11 C          -2.3410   -2.1968    2.8707 C.3     1  UNL1        0.0000
     12 H          -2.6951   -2.3419    3.8855 H       1  UNL1        0.0000
     13 H          -3.1911   -2.3189    2.2068 H       1  UNL1        0.0000
     14 H          -1.9912   -1.1680    2.7840 H       1  UNL1        0.0000
     15 H           1.3549   -3.7093    3.4794 H       1  UNL1        0.0000
     16 H           0.1997   -3.0959    4.6469 H       1  UNL1        0.0000
@<TRIPOS>BOND
     1     5     3    1
     2     6     3    1
     3     3     4    1
     4     3     1    1
     5     9     7    1
     6     8     7    1
     7    13    11    1
     8     7     1    1
     9     7    10    1
    10     1    11    1
    11     1     2    1
    12    14    11    1
    13    11    12    1
    14    15     2    1
    15     2    16    1
