@<TRIPOS>MOLECULE
2
 16 15 0 0 0
SMALL
GASTEIGER

@<TRIPOS>ATOM
      1 SI         -0.8926    1.6234    3.5677 Si      1  UNL1        0.0000
      2 C           0.3141    0.8500    2.3485 C.3     1  UNL1        0.0000
      3 C          -2.6350    1.9380    2.8341 C.3     1  UNL1        0.0000
      4 H          -2.5932    2.6581    2.0227 H       1  UNL1        0.0000
      5 H          -3.3185    2.3276    3.5829 H       1  UNL1        0.0000
      6 H          -3.0693    1.0257    2.4377 H       1  UNL1        0.0000
      7 C          -1.1176    0.4286    5.0650 C.3     1  UNL1        0.0000
      8 H          -0.5222   -0.4800    4.9238 H       1  UNL1        0.0000
      9 H          -2.1526    0.1232    5.1758 H       1  UNL1        0.0000
     10 H          -0.8159    0.8835    6.0037 H       1  UNL1        0.0000
     11 C          -0.3129    3.3156    4.2608 C.3     1  UNL1        0.0000
     12 H           0.6882    3.2649    4.6763 H       1  UNL1        0.0000
     13 H          -0.9760    3.6694    5.0446 H       1  UNL1        0.0000
     14 H          -0.3025    4.0685    3.4791 H       1  UNL1        0.0000
     15 H           1.1602    1.5151    2.1656 H       1  UNL1        0.0000
     16 H          -0.1737    0.7001    1.3767 H       1  UNL1        0.0000
@<TRIPOS>BOND
     1    16     2    1
     2     4     3    1
     3    15     2    1
     4     2     1    1
     5     6     3    1
     6     3     1    1
     7     3     5    1
     8    14    11    1
     9     1    11    1
    10     1     7    1
    11    11    12    1
    12    11    13    1
    13     8     7    1
    14     7     9    1
    15     7    10    1
