@<TRIPOS>MOLECULE
1
 4 3 0 0 0
SMALL
GASTEIGER

@<TRIPOS>ATOM
      1 C           7.2903    3.8972   13.6737 C.3     1  UNL1       -0.0681
      2 H           7.4262    3.9834   14.7590 H       1  UNL1        0.0227
      3 H           8.2899    3.8117   13.2284 H       1  UNL1        0.0227
      4 H           6.8620    4.8457   13.3262 H       1  UNL1        0.0227
@<TRIPOS>BOND
     1     3     1    1
     2     4     1    1
     3     1     2    1
