@<TRIPOS>MOLECULE
1
 4 3 0 0 0
SMALL
GASTEIGER

@<TRIPOS>ATOM
      1 C           4.5592    3.0855   14.2524 C.3     1  UNL1       -0.0681
      2 H           3.6762    2.4347   14.2142 H       1  UNL1        0.0227
      3 H           4.8195    3.2152   15.3104 H       1  UNL1        0.0227
      4 H           4.2531    4.0685   13.8731 H       1  UNL1        0.0227
@<TRIPOS>BOND
     1     4     1    1
     2     2     1    1
     3     1     3    1
