@<TRIPOS>MOLECULE
1
 31 31 0 0 0
SMALL
GASTEIGER

@<TRIPOS>ATOM
      1 C           1.0219    3.5697    5.7414 C.3     1  UNL1        0.0000
      2 C           1.6191    2.3157    6.2412 C.ar    1  UNL1        0.0000
      3 C           1.4873    1.9473    7.5768 C.ar    1  UNL1        0.0000
      4 H           0.9034    2.5707    8.2385 H       1  UNL1        0.0000
      5 C           2.1231    0.8194    8.0643 C.ar    1  UNL1        0.0000
      6 H           2.0300    0.5607    9.1086 H       1  UNL1        0.0000
      7 C           2.8722    0.0204    7.2145 C.ar    1  UNL1        0.0000
      8 H           3.3690   -0.8594    7.5960 H       1  UNL1        0.0000
      9 C           2.9702    0.3398    5.8736 C.ar    1  UNL1        0.0000
     10 H           3.5272   -0.2904    5.1959 H       1  UNL1        0.0000
     11 C           2.3458    1.4819    5.3748 C.ar    1  UNL1        0.0000
     12 C           2.3880    1.7522    3.9850 C.1     1  UNL1        0.0000
     13 C           2.4024    1.8664    2.7799 C.1     1  UNL1        0.0000
     14 O          -0.2980    3.4590    5.8447 O.3     1  UNL1        0.0000
     15 C          -1.1596    4.4821    5.3930 C.3     1  UNL1        0.0000
     16 H          -2.1505    4.0328    5.3243 H       1  UNL1        0.0000
     17 H          -0.8505    4.8532    4.4121 H       1  UNL1        0.0000
     18 H          -1.1861    5.3087    6.1072 H       1  UNL1        0.0000
     19 SI          2.3584    1.9719    0.9272 Si      1  UNL1        0.0000
     20 C           3.5975    3.2931    0.3321 C.3     1  UNL1        0.0000
     21 H           3.6638    3.3143   -0.7523 H       1  UNL1        0.0000
     22 H           4.5916    3.0890    0.7188 H       1  UNL1        0.0000
     23 H           3.3082    4.2857    0.6626 H       1  UNL1        0.0000
     24 C           2.8802    0.2616    0.2607 C.3     1  UNL1        0.0000
     25 H           2.8762    0.2395   -0.8253 H       1  UNL1        0.0000
     26 H           2.2066   -0.5160    0.6078 H       1  UNL1        0.0000
     27 H           3.8805   -0.0014    0.5913 H       1  UNL1        0.0000
     28 C           0.5855    2.3844    0.3653 C.3     1  UNL1        0.0000
     29 H           0.5067    2.4049   -0.7183 H       1  UNL1        0.0000
     30 H           0.2747    3.3547    0.7376 H       1  UNL1        0.0000
     31 H          -0.1224    1.6478    0.7339 H       1  UNL1        0.0000
@<TRIPOS>BOND
     1    25    24    1
     2    21    20    1
     3    29    28    1
     4    24    27    1
     5    24    26    1
     6    24    19    1
     7    20    23    1
     8    20    22    1
     9    20    19    1
    10    28    31    1
    11    28    30    1
    12    28    19    1
    13    19    13    1
    14    13    12    3
    15    12    11    1
    16    17    15    1
    17    10     9    1
    18    16    15    1
    19    11     9   ar
    20    11     2   ar
    21    15    14    1
    22    15    18    1
    23     1    14    1
    24     1     2    1
    25     9     7   ar
    26     2     3   ar
    27     7     8    1
    28     7     5   ar
    29     3     5   ar
    30     3     4    1
    31     5     6    1
