@<TRIPOS>MOLECULE
2
 16 15 0 0 0
SMALL
GASTEIGER

@<TRIPOS>ATOM
      1 SI         -3.8114   -6.4333  -17.3594 Si      1  UNL1        0.0000
      2 C          -3.9657   -7.4676  -15.8051 C.3     1  UNL1        0.0000
      3 C          -2.3590   -5.1719  -17.3237 C.3     1  UNL1        0.0000
      4 C          -3.5653   -7.5387  -18.9138 C.3     1  UNL1        0.0000
      5 C          -5.3877   -5.4021  -17.7315 C.3     1  UNL1        0.0000
      6 H          -3.2485   -7.1130  -15.0534 H       1  UNL1        0.0000
      7 H          -3.6511   -8.4845  -16.0697 H       1  UNL1        0.0000
      8 H          -2.3338   -4.5523  -18.2145 H       1  UNL1        0.0000
      9 H          -1.4007   -5.6760  -17.2497 H       1  UNL1        0.0000
     10 H          -2.4455   -4.5111  -16.4664 H       1  UNL1        0.0000
     11 H          -3.5449   -6.9550  -19.8285 H       1  UNL1        0.0000
     12 H          -4.3782   -8.2543  -18.9991 H       1  UNL1        0.0000
     13 H          -2.6367   -8.0984  -18.8635 H       1  UNL1        0.0000
     14 H          -5.2388   -4.7310  -18.5734 H       1  UNL1        0.0000
     15 H          -5.6724   -4.7959  -16.8741 H       1  UNL1        0.0000
     16 H          -6.2170   -6.0595  -17.9818 H       1  UNL1        0.0000
@<TRIPOS>BOND
     1    11     4    1
     2    12     4    1
     3     4    13    1
     4     4     1    1
     5    14     5    1
     6     8     3    1
     7    16     5    1
     8     5     1    1
     9     5    15    1
    10     1     3    1
    11     1     2    1
    12     3     9    1
    13     3    10    1
    14     7     2    1
    15     2     6    1
