@<TRIPOS>MOLECULE
2
 16 15 0 0 0
SMALL
GASTEIGER

@<TRIPOS>ATOM
      1 SI          0.7609    8.0738   10.6197 Si      1  UNL1        0.0000
      2 C           0.5248    6.8906    9.1751 C.3     1  UNL1        0.0000
      3 C          -0.8943    8.4995   11.5033 C.3     1  UNL1        0.0000
      4 C           1.8922    7.3513   11.9853 C.3     1  UNL1        0.0000
      5 C           1.4811    9.7713   10.0745 C.3     1  UNL1        0.0000
      6 H          -0.3781    7.2133    8.6377 H       1  UNL1        0.0000
      7 H           0.2627    5.9218    9.6182 H       1  UNL1        0.0000
      8 H          -1.5802    9.0009   10.8273 H       1  UNL1        0.0000
      9 H          -0.7419    9.1535   12.3566 H       1  UNL1        0.0000
     10 H          -1.3922    7.6051   11.8651 H       1  UNL1        0.0000
     11 H           1.9224    7.9992   12.8560 H       1  UNL1        0.0000
     12 H           2.9109    7.2164   11.6402 H       1  UNL1        0.0000
     13 H           1.5350    6.3806   12.3144 H       1  UNL1        0.0000
     14 H           1.2263   10.0042    9.0445 H       1  UNL1        0.0000
     15 H           2.5613    9.8008   10.1687 H       1  UNL1        0.0000
     16 H           1.0843   10.5721   10.6907 H       1  UNL1        0.0000
@<TRIPOS>BOND
     1     6     2    1
     2    14     5    1
     3     2     7    1
     4     2     1    1
     5     5    15    1
     6     5     1    1
     7     5    16    1
     8     1     3    1
     9     1     4    1
    10     8     3    1
    11     3    10    1
    12     3     9    1
    13    12     4    1
    14     4    13    1
    15     4    11    1
