@<TRIPOS>MOLECULE
2
 16 15 0 0 0
SMALL
GASTEIGER

@<TRIPOS>ATOM
      1 SI         -4.1142   -5.6844  -12.4313 Si      1  UNL1        0.0000
      2 C          -5.2874   -5.4594  -13.8745 C.3     1  UNL1        0.0000
      3 C          -4.7210   -4.7985  -10.8348 C.3     1  UNL1        0.0000
      4 C          -3.9540   -7.5342  -11.9435 C.3     1  UNL1        0.0000
      5 C          -2.3309   -5.0492  -12.7675 C.3     1  UNL1        0.0000
      6 H          -4.7850   -4.8851  -14.6657 H       1  UNL1        0.0000
      7 H          -6.1147   -4.8338  -13.5169 H       1  UNL1        0.0000
      8 H          -4.7782   -3.7234  -10.9733 H       1  UNL1        0.0000
      9 H          -4.0646   -4.9840   -9.9907 H       1  UNL1        0.0000
     10 H          -5.7125   -5.1473  -10.5607 H       1  UNL1        0.0000
     11 H          -3.5456   -8.1172  -12.7666 H       1  UNL1        0.0000
     12 H          -4.9302   -7.9388  -11.6827 H       1  UNL1        0.0000
     13 H          -3.3022   -7.6742  -11.0851 H       1  UNL1        0.0000
     14 H          -2.3121   -3.9683  -12.8618 H       1  UNL1        0.0000
     15 H          -1.9381   -5.4618  -13.6917 H       1  UNL1        0.0000
     16 H          -1.6463   -5.3191  -11.9695 H       1  UNL1        0.0000
@<TRIPOS>BOND
     1     6     2    1
     2     2     7    1
     3     2     1    1
     4    15     5    1
     5    14     5    1
     6     5     1    1
     7     5    16    1
     8    11     4    1
     9     1     4    1
    10     1     3    1
    11     4    12    1
    12     4    13    1
    13     8     3    1
    14     3    10    1
    15     3     9    1
