@<TRIPOS>MOLECULE
2
 16 15 0 0 0
SMALL
GASTEIGER

@<TRIPOS>ATOM
      1 SI         -0.9032    8.9829    2.4668 Si      1  UNL1        0.0000
      2 C           0.4138    8.9436    3.8134 C.3     1  UNL1        0.0000
      3 C          -2.3316    7.7619    2.8388 C.3     1  UNL1        0.0000
      4 C          -1.7228   10.7134    2.2937 C.3     1  UNL1        0.0000
      5 C          -0.2338    8.5699    0.7169 C.3     1  UNL1        0.0000
      6 H          -0.0946    8.6273    4.7345 H       1  UNL1        0.0000
      7 H           0.7311    9.9840    3.9813 H       1  UNL1        0.0000
      8 H          -2.7670    7.9484    3.8156 H       1  UNL1        0.0000
      9 H          -1.9881    6.7341    2.8273 H       1  UNL1        0.0000
     10 H          -3.1279    7.8504    2.1063 H       1  UNL1        0.0000
     11 H          -2.2420   11.0009    3.2027 H       1  UNL1        0.0000
     12 H          -2.4458   10.7357    1.4843 H       1  UNL1        0.0000
     13 H          -0.9798   11.4781    2.0880 H       1  UNL1        0.0000
     14 H           0.5628    7.8351    0.7669 H       1  UNL1        0.0000
     15 H           0.1599    9.4522    0.2224 H       1  UNL1        0.0000
     16 H          -1.0192    8.1693    0.0828 H       1  UNL1        0.0000
@<TRIPOS>BOND
     1    16     5    1
     2    15     5    1
     3     5    14    1
     4     5     1    1
     5    12     4    1
     6    13     4    1
     7    10     3    1
     8     4     1    1
     9     4    11    1
    10     1     3    1
    11     1     2    1
    12     9     3    1
    13     3     8    1
    14     2     7    1
    15     2     6    1
