@<TRIPOS>MOLECULE
2
 16 15 0 0 0
SMALL
GASTEIGER

@<TRIPOS>ATOM
      1 SI          0.0171    7.5209    4.9161 Si      1  UNL1        0.0000
      2 C           1.1759    8.0481    6.3026 C.3     1  UNL1        0.0000
      3 C          -0.9735    9.0012    4.1886 C.3     1  UNL1        0.0000
      4 C           0.9461    6.7532    3.4279 C.3     1  UNL1        0.0000
      5 C          -1.3205    6.2679    5.5000 C.3     1  UNL1        0.0000
      6 H           0.6254    8.7659    6.9268 H       1  UNL1        0.0000
      7 H           1.9695    8.6353    5.8240 H       1  UNL1        0.0000
      8 H          -1.6209    8.6957    3.3722 H       1  UNL1        0.0000
      9 H          -0.3103    9.7713    3.8064 H       1  UNL1        0.0000
     10 H          -1.6003    9.4609    4.9469 H       1  UNL1        0.0000
     11 H           0.2727    6.5656    2.5968 H       1  UNL1        0.0000
     12 H           1.4203    5.8129    3.6854 H       1  UNL1        0.0000
     13 H           1.7269    7.4174    3.0706 H       1  UNL1        0.0000
     14 H          -2.2587    6.4402    4.9817 H       1  UNL1        0.0000
     15 H          -1.5218    6.3594    6.5634 H       1  UNL1        0.0000
     16 H          -1.0287    5.2424    5.3002 H       1  UNL1        0.0000
@<TRIPOS>BOND
     1    11     4    1
     2    13     4    1
     3     8     3    1
     4     4    12    1
     5     4     1    1
     6     9     3    1
     7     3     1    1
     8     3    10    1
     9     1     5    1
    10     1     2    1
    11    14     5    1
    12    16     5    1
    13     5    15    1
    14     7     2    1
    15     2     6    1
