@<TRIPOS>MOLECULE
2
 16 15 0 0 0
SMALL
GASTEIGER

@<TRIPOS>ATOM
      1 SI          4.3990   10.3847    2.4809 Si      1  UNL1        0.0000
      2 C           3.1075    9.0975    2.0246 C.3     1  UNL1        0.0000
      3 C           6.1683    9.6805    2.7048 C.3     1  UNL1        0.0000
      4 C           3.9233   11.2862    4.1059 C.3     1  UNL1        0.0000
      5 C           4.5787   11.7643    1.1516 C.3     1  UNL1        0.0000
      6 H           3.4893    8.5175    1.1750 H       1  UNL1        0.0000
      7 H           2.2374    9.6412    1.6371 H       1  UNL1        0.0000
      8 H           6.2290    9.0183    3.5618 H       1  UNL1        0.0000
      9 H           6.8866   10.4799    2.8599 H       1  UNL1        0.0000
     10 H           6.4880    9.1233    1.8299 H       1  UNL1        0.0000
     11 H           4.4097   10.8290    4.9605 H       1  UNL1        0.0000
     12 H           2.8505   11.2537    4.2728 H       1  UNL1        0.0000
     13 H           4.2197   12.3304    4.0845 H       1  UNL1        0.0000
     14 H           4.8768   11.3535    0.1919 H       1  UNL1        0.0000
     15 H           5.3209   12.5053    1.4324 H       1  UNL1        0.0000
     16 H           3.6380   12.2853    1.0023 H       1  UNL1        0.0000
@<TRIPOS>BOND
     1    14     5    1
     2    16     5    1
     3     5    15    1
     4     5     1    1
     5     6     2    1
     6     7     2    1
     7    10     3    1
     8     2     1    1
     9     1     3    1
    10     1     4    1
    11     3     9    1
    12     3     8    1
    13    13     4    1
    14     4    12    1
    15     4    11    1
