@<TRIPOS>MOLECULE
2
 16 15 0 0 0
SMALL
GASTEIGER

@<TRIPOS>ATOM
      1 SI         -0.7241   -7.9985  -10.5836 Si      1  UNL1        0.0000
      2 C          -0.4126   -6.8642   -9.1259 C.3     1  UNL1        0.0000
      3 C           0.8700   -8.4640  -11.5675 C.3     1  UNL1        0.0000
      4 C          -1.8868   -7.2292  -11.9039 C.3     1  UNL1        0.0000
      5 C          -1.4697   -9.6948  -10.0519 C.3     1  UNL1        0.0000
      6 H          -0.0907   -5.8983   -9.5404 H       1  UNL1        0.0000
      7 H           0.4562   -7.2537   -8.5734 H       1  UNL1        0.0000
      8 H           0.6585   -9.1294  -12.3995 H       1  UNL1        0.0000
      9 H           1.5909   -8.9634  -10.9269 H       1  UNL1        0.0000
     10 H           1.3550   -7.5813  -11.9735 H       1  UNL1        0.0000
     11 H          -1.8042   -7.7509  -12.8524 H       1  UNL1        0.0000
     12 H          -1.6382   -6.1878  -12.0841 H       1  UNL1        0.0000
     13 H          -2.9277   -7.2634  -11.6016 H       1  UNL1        0.0000
     14 H          -1.0375  -10.5040  -10.6323 H       1  UNL1        0.0000
     15 H          -2.5435   -9.7295  -10.2058 H       1  UNL1        0.0000
     16 H          -1.2672   -9.9092   -9.0051 H       1  UNL1        0.0000
@<TRIPOS>BOND
     1    11     4    1
     2     8     3    1
     3    12     4    1
     4    10     3    1
     5     4    13    1
     6     4     1    1
     7     3     9    1
     8     3     1    1
     9    14     5    1
    10     1     5    1
    11     1     2    1
    12    15     5    1
    13     5    16    1
    14     6     2    1
    15     2     7    1
