@<TRIPOS>MOLECULE
2
 16 15 0 0 0
SMALL
GASTEIGER

@<TRIPOS>ATOM
      1 SI         -0.0584   -7.5924   -4.9831 Si      1  UNL1        0.0000
      2 C          -1.1495   -8.1578   -6.3966 C.3     1  UNL1        0.0000
      3 C           0.9926   -9.0063   -4.1945 C.3     1  UNL1        0.0000
      4 C          -1.0481   -6.8570   -3.5117 C.3     1  UNL1        0.0000
      5 C           1.2442   -6.2836   -5.5354 C.3     1  UNL1        0.0000
      6 H          -1.9195   -8.8095   -5.9599 H       1  UNL1        0.0000
      7 H          -0.5464   -8.8077   -7.0488 H       1  UNL1        0.0000
      8 H           1.6110   -8.6503   -3.3758 H       1  UNL1        0.0000
      9 H           1.6536   -9.4553   -4.9300 H       1  UNL1        0.0000
     10 H           0.3602   -9.7975   -3.8030 H       1  UNL1        0.0000
     11 H          -0.4293   -6.7748   -2.6233 H       1  UNL1        0.0000
     12 H          -1.8962   -7.4859   -3.2589 H       1  UNL1        0.0000
     13 H          -1.4357   -5.8687   -3.7339 H       1  UNL1        0.0000
     14 H           2.1904   -6.4452   -5.0284 H       1  UNL1        0.0000
     15 H           0.9250   -5.2733   -5.3005 H       1  UNL1        0.0000
     16 H           1.4400   -6.3410   -6.6036 H       1  UNL1        0.0000
@<TRIPOS>BOND
     1     7     2    1
     2    16     5    1
     3     2     6    1
     4     2     1    1
     5     5    15    1
     6     5    14    1
     7     5     1    1
     8     1     3    1
     9     1     4    1
    10     9     3    1
    11     3    10    1
    12     3     8    1
    13    13     4    1
    14     4    12    1
    15     4    11    1
