@<TRIPOS>MOLECULE
1
 14 14 0 0 0
SMALL
GASTEIGER

@<TRIPOS>ATOM
      1 C          16.7776    0.2117   11.6865 C.3     1  UNL1       -0.0237
      2 C          15.6049    1.0862   11.8070 C.ar    1  UNL1       -0.0470
      3 C          14.3979    0.8201   11.1466 C.ar    1  UNL1       -0.0586
      4 C          13.3092    1.6606   11.2784 C.ar    1  UNL1       -0.0615
      5 C          13.3863    2.7918   12.0752 C.ar    1  UNL1       -0.0617
      6 C          14.5693    3.0712   12.7435 C.ar    1  UNL1       -0.0615
      7 C          15.6611    2.2344   12.6167 C.ar    1  UNL1       -0.0586
      8 H          16.5798    2.4479   13.1571 H       1  UNL1        0.0620
      9 H          14.6340    3.9470   13.3752 H       1  UNL1        0.0618
     10 H          12.5326    3.4449   12.1805 H       1  UNL1        0.0618
     11 H          12.3876    1.4276   10.7640 H       1  UNL1        0.0618
     12 H          14.3113   -0.0708   10.5374 H       1  UNL1        0.0620
     13 H          17.2592    0.0740   12.6657 H       1  UNL1        0.0316
     14 H          16.5106   -0.7714   11.2668 H       1  UNL1        0.0316
@<TRIPOS>BOND
     1    12     3    1
     2    11     4    1
     3     3     4   ar
     4     3     2   ar
     5    14     1    1
     6     4     5   ar
     7     1     2    1
     8     1    13    1
     9     2     7   ar
    10     5    10    1
    11     5     6   ar
    12     7     6   ar
    13     7     8    1
    14     6     9    1
