@<TRIPOS>MOLECULE
1
 14 14 0 0 0
SMALL
GASTEIGER

@<TRIPOS>ATOM
      1 C          19.2858    0.2117    9.4021 C.3     1  UNL1       -0.0237
      2 C          20.4585    1.0862    9.2816 C.ar    1  UNL1       -0.0470
      3 C          21.6655    0.8201    9.9420 C.ar    1  UNL1       -0.0586
      4 C          22.7542    1.6606    9.8102 C.ar    1  UNL1       -0.0615
      5 C          22.6771    2.7918    9.0134 C.ar    1  UNL1       -0.0617
      6 C          21.4940    3.0712    8.3451 C.ar    1  UNL1       -0.0615
      7 C          20.4023    2.2344    8.4719 C.ar    1  UNL1       -0.0586
      8 H          18.8042    0.0740    8.4229 H       1  UNL1        0.0316
      9 H          19.5528   -0.7714    9.8218 H       1  UNL1        0.0316
     10 H          21.7521   -0.0708   10.5512 H       1  UNL1        0.0620
     11 H          23.6758    1.4276   10.3246 H       1  UNL1        0.0618
     12 H          23.5308    3.4449    8.9081 H       1  UNL1        0.0618
     13 H          21.4294    3.9470    7.7134 H       1  UNL1        0.0618
     14 H          19.4836    2.4479    7.9315 H       1  UNL1        0.0620
@<TRIPOS>BOND
     1    13     6    1
     2    14     7    1
     3     6     7   ar
     4     6     5   ar
     5     8     1    1
     6     7     2   ar
     7    12     5    1
     8     5     4   ar
     9     2     1    1
    10     2     3   ar
    11     1     9    1
    12     4     3   ar
    13     4    11    1
    14     3    10    1
