@<TRIPOS>MOLECULE
1
 29 28 0 0 0
SMALL
GASTEIGER

@<TRIPOS>ATOM
      1 C           7.0720    8.3515    2.8527 C.3     1  UNL1        0.0000
      2 C           6.2511    9.4884    2.8978 C.2     1  UNL1        0.0000
      3 H           5.6760    9.7378    2.0158 H       1  UNL1        0.0000
      4 C           6.1556   10.2855    4.0165 C.2     1  UNL1        0.0000
      5 H           6.7473   10.0113    4.8820 H       1  UNL1        0.0000
      6 N           5.3962   11.3689    4.1541 N.pl3   1  UNL1        0.0000
      7 C           4.5573   11.8370    3.0753 C.3     1  UNL1        0.0000
      8 H           3.9750   12.6903    3.4140 H       1  UNL1        0.0000
      9 H           3.8729   11.0498    2.7534 H       1  UNL1        0.0000
     10 H           5.1625   12.1411    2.2181 H       1  UNL1        0.0000
     11 C           5.3867   12.1410    5.3687 C.3     1  UNL1        0.0000
     12 H           5.7156   13.1647    5.1717 H       1  UNL1        0.0000
     13 H           6.0548   11.6948    6.1018 H       1  UNL1        0.0000
     14 H           4.3782   12.1764    5.7889 H       1  UNL1        0.0000
     15 C           7.8320    8.0317    3.9699 C.1     1  UNL1        0.0000
     16 C           8.5180    7.7011    4.9257 C.1     1  UNL1        0.0000
     17 SI          9.6758    6.9003    6.1298 Si      1  UNL1        0.0000
     18 C           9.4171    5.0159    6.0340 C.3     1  UNL1        0.0000
     19 H          10.0508    4.4855    6.7394 H       1  UNL1        0.0000
     20 H           9.6472    4.6476    5.0388 H       1  UNL1        0.0000
     21 H           8.3866    4.7499    6.2497 H       1  UNL1        0.0000
     22 C          11.4520    7.3792    5.6334 C.3     1  UNL1        0.0000
     23 H          12.1839    6.9233    6.2942 H       1  UNL1        0.0000
     24 H          11.5986    8.4547    5.6699 H       1  UNL1        0.0000
     25 H          11.6695    7.0521    4.6216 H       1  UNL1        0.0000
     26 C           9.2748    7.5497    7.8796 C.3     1  UNL1        0.0000
     27 H           9.9123    7.0847    8.6259 H       1  UNL1        0.0000
     28 H           8.2449    7.3397    8.1532 H       1  UNL1        0.0000
     29 H           9.4217    8.6237    7.9488 H       1  UNL1        0.0000
@<TRIPOS>BOND
     1     3     2    1
     2    10     7    1
     3     9     7    1
     4     1     2    1
     5     1    15    1
     6     2     4    2
     7     7     8    1
     8     7     6    1
     9    15    16    3
    10     4     6    1
    11     4     5    1
    12     6    11    1
    13    25    22    1
    14    16    17    1
    15    20    18    1
    16    12    11    1
    17    11    14    1
    18    11    13    1
    19    22    24    1
    20    22    17    1
    21    22    23    1
    22    18    17    1
    23    18    21    1
    24    18    19    1
    25    17    26    1
    26    26    29    1
    27    26    28    1
    28    26    27    1
