@<TRIPOS>MOLECULE
1
 15 14 0 0 0
SMALL
GASTEIGER

@<TRIPOS>ATOM
      1 C           3.9509   31.0240   14.0774 C.3     1  UNL1        0.0000
      2 SI          3.3603   31.3964   12.3193 Si      1  UNL1        0.0000
      3 C           1.9399   32.6652   12.1876 C.3     1  UNL1        0.0000
      4 C           4.8190   32.0240   11.2447 C.3     1  UNL1        0.0000
      5 C           2.7993   29.7835   11.4466 C.3     1  UNL1        0.0000
      6 H           4.7717   30.2983   13.9442 H       1  UNL1        0.0000
      7 H           1.0387   32.3208   12.6849 H       1  UNL1        0.0000
      8 H           1.6892   32.8452   11.1460 H       1  UNL1        0.0000
      9 H           2.2039   33.6215   12.6284 H       1  UNL1        0.0000
     10 H           5.1206   33.0339   11.4982 H       1  UNL1        0.0000
     11 H           4.5332   32.0225   10.1967 H       1  UNL1        0.0000
     12 H           5.6898   31.3830   11.3452 H       1  UNL1        0.0000
     13 H           3.5272   28.9884   11.5773 H       1  UNL1        0.0000
     14 H           2.6963   29.9580   10.3795 H       1  UNL1        0.0000
     15 H           1.8445   29.4219   11.8112 H       1  UNL1        0.0000
@<TRIPOS>BOND
     1    11     4    1
     2    14     5    1
     3     8     3    1
     4     4    12    1
     5     4    10    1
     6     4     2    1
     7     5    13    1
     8     5    15    1
     9     5     2    1
    10     3     2    1
    11     3     9    1
    12     3     7    1
    13     2     1    1
    14     6     1    1
