@<TRIPOS>MOLECULE
1
 14 14 0 0 0
SMALL
GASTEIGER

@<TRIPOS>ATOM
      1 C           9.8696   10.6879   14.8462 C.3     1  UNL1       -0.0237
      2 C          10.0976   10.6148   16.3002 C.ar    1  UNL1       -0.0470
      3 C           9.9156   11.7243   17.1330 C.ar    1  UNL1       -0.0586
      4 C          10.1104   11.6363   18.4980 C.ar    1  UNL1       -0.0615
      5 C          10.5096   10.4415   19.0745 C.ar    1  UNL1       -0.0617
      6 C          10.7273    9.3387   18.2645 C.ar    1  UNL1       -0.0615
      7 C          10.5284    9.4257   16.9001 C.ar    1  UNL1       -0.0586
      8 H          10.2348   11.6477   14.4670 H       1  UNL1        0.0316
      9 H          10.4481    9.8988   14.3537 H       1  UNL1        0.0316
     10 H           9.6288   12.6738   16.7009 H       1  UNL1        0.0620
     11 H           9.9571   12.5081   19.1189 H       1  UNL1        0.0618
     12 H          10.6608   10.3738   20.1416 H       1  UNL1        0.0618
     13 H          11.0569    8.4060   18.7013 H       1  UNL1        0.0618
     14 H          10.7039    8.5598   16.2765 H       1  UNL1        0.0620
@<TRIPOS>BOND
     1     9     1    1
     2     8     1    1
     3     1     2    1
     4    14     7    1
     5     2     7   ar
     6     2     3   ar
     7    10     3    1
     8     7     6   ar
     9     3     4   ar
    10     6    13    1
    11     6     5   ar
    12     4     5   ar
    13     4    11    1
    14     5    12    1
