@<TRIPOS>MOLECULE
1
 13 13 0 0 0
SMALL
GASTEIGER

@<TRIPOS>ATOM
      1 C          11.1962    2.0649    2.5211 C.1     1  UNL1       -0.0092
      2 C          11.2759    3.0649    1.8297 C.1     1  UNL1       -0.0525
      3 C          11.3440    4.2396    1.0336 C.ar    1  UNL1        0.0259
      4 C          11.8348    4.1841   -0.2720 C.ar    1  UNL1       -0.0463
      5 H          12.1683    3.2356   -0.6693 H       1  UNL1        0.0630
      6 C          11.8929    5.3285   -1.0434 C.ar    1  UNL1       -0.0606
      7 H          12.2749    5.2773   -2.0534 H       1  UNL1        0.0618
      8 C          11.4634    6.5412   -0.5285 C.ar    1  UNL1       -0.0617
      9 H          11.5099    7.4344   -1.1347 H       1  UNL1        0.0618
     10 C          10.9744    6.6045    0.7666 C.ar    1  UNL1       -0.0606
     11 H          10.6392    7.5497    1.1701 H       1  UNL1        0.0618
     12 C          10.9136    5.4655    1.5453 C.ar    1  UNL1       -0.0463
     13 H          10.5354    5.5121    2.5565 H       1  UNL1        0.0630
@<TRIPOS>BOND
     1     7     6    1
     2     9     8    1
     3     6     8   ar
     4     6     4   ar
     5     5     4    1
     6     8    10   ar
     7     4     3   ar
     8    10    11    1
     9    10    12   ar
    10     3    12   ar
    11     3     2    1
    12    12    13    1
    13     2     1    3
