@<TRIPOS>MOLECULE
1
 4 3 0 0 0
SMALL
GASTEIGER

@<TRIPOS>ATOM
      1 C          -2.3758    3.8699    1.6402 C.3     1  UNL1       -0.0681
      2 H          -2.9546    4.6479    2.1494 H       1  UNL1        0.0227
      3 H          -3.0113    3.4572    0.8484 H       1  UNL1        0.0227
      4 H          -2.2122    3.0739    2.3712 H       1  UNL1        0.0227
@<TRIPOS>BOND
     1     3     1    1
     2     1     2    1
     3     1     4    1
