@<TRIPOS>MOLECULE
2
 22 22 0 0 0
SMALL
GASTEIGER

@<TRIPOS>ATOM
      1 SI          1.4855    1.9434    1.6201 Si      1  UNL1        0.0000
      2 C           0.5935    2.8388    0.1791 C.3     1  UNL1        0.0000
      3 C          -0.4568    2.1113   -0.5227 C.2     1  UNL1        0.0000
      4 C          -0.2222    2.1586   -1.8719 C.2     1  UNL1        0.0000
      5 C           0.9657    2.8982   -2.1015 C.2     1  UNL1        0.0000
      6 C           1.4617    3.3145   -0.8954 C.2     1  UNL1        0.0000
      7 C           0.2568    1.6535    3.0547 C.3     1  UNL1        0.0000
      8 C           2.1501    0.2799    0.9480 C.3     1  UNL1        0.0000
      9 C           2.9149    3.0529    2.2315 C.3     1  UNL1        0.0000
     10 H          -1.2360    1.5460   -0.0288 H       1  UNL1        0.0000
     11 H          -0.8273    1.7094   -2.6427 H       1  UNL1        0.0000
     12 H           1.3908    3.0934   -3.0727 H       1  UNL1        0.0000
     13 H           2.3953    3.8362   -0.7290 H       1  UNL1        0.0000
     14 H          -0.6132    1.0834    2.7415 H       1  UNL1        0.0000
     15 H          -0.0782    2.6198    3.4301 H       1  UNL1        0.0000
     16 H           0.7238    1.1139    3.8720 H       1  UNL1        0.0000
     17 H           1.3421   -0.3642    0.6178 H       1  UNL1        0.0000
     18 H           2.7065   -0.2517    1.7116 H       1  UNL1        0.0000
     19 H           2.8112    0.4332    0.1015 H       1  UNL1        0.0000
     20 H           3.6841    3.1955    1.4788 H       1  UNL1        0.0000
     21 H           3.3918    2.6330    3.1108 H       1  UNL1        0.0000
     22 H           2.5075    4.0257    2.5015 H       1  UNL1        0.0000
@<TRIPOS>BOND
     1    12     5    1
     2    11     4    1
     3     5     4    1
     4     5     6    2
     5     4     3    2
     6     6    13    1
     7     6     2    1
     8     3    10    1
     9     3     2    1
    10    19     8    1
    11     2     1    1
    12    17     8    1
    13     8     1    1
    14     8    18    1
    15    20     9    1
    16     1     9    1
    17     1     7    1
    18     9    22    1
    19     9    21    1
    20    14     7    1
    21     7    15    1
    22     7    16    1
