@<TRIPOS>MOLECULE
6
 11 11 0 0 0
SMALL
GASTEIGER

@<TRIPOS>ATOM
      1 F           3.0162    0.3077    0.5991 F       1  UNL1       -0.2016
      2 F           0.8694   -1.3985    0.7131 F       1  UNL1       -0.1993
      3 F          -1.1082   -0.9506    2.5541 F       1  UNL1       -0.1993
      4 F          -0.9030    1.1715    4.2651 F       1  UNL1       -0.1993
      5 F           1.2442    2.8666    4.0720 F       1  UNL1       -0.2016
      6 C           2.1147    1.6963    2.2453 C.ar    1  UNL1        0.0641
      7 C           1.9864    0.5666    1.4515 C.ar    1  UNL1        0.1720
      8 C           0.9300   -0.3306    1.5217 C.ar    1  UNL1        0.1970
      9 C          -0.0711   -0.1101    2.4631 C.ar    1  UNL1        0.1991
     10 C           0.0327    0.9768    3.3273 C.ar    1  UNL1        0.1970
     11 C           1.1158    1.8370    3.1989 C.ar    1  UNL1        0.1720
@<TRIPOS>BOND
     1     1     7    1
     2     2     8    1
     3     7     8   ar
     4     7     6   ar
     5     8     9   ar
     6     6    11   ar
     7     9     3    1
     8     9    10   ar
     9    11    10   ar
    10    11     5    1
    11    10     4    1
