@<TRIPOS>MOLECULE
2
 16 15 0 0 0
SMALL
GASTEIGER

@<TRIPOS>ATOM
      1 SI          5.4069    2.5345    0.7241 Si      1  UNL1        0.0000
      2 C           4.8370    2.1465    2.4666 C.3     1  UNL1        0.0000
      3 H           5.7716    1.9334    3.0217 H       1  UNL1        0.0000
      4 H           4.2946    1.1836    2.4389 H       1  UNL1        0.0000
      5 C           6.5869    1.2193   -0.0451 C.3     1  UNL1        0.0000
      6 H           7.4905    1.1174    0.5488 H       1  UNL1        0.0000
      7 H           6.8891    1.4733   -1.0574 H       1  UNL1        0.0000
      8 H           6.1134    0.2419   -0.0825 H       1  UNL1        0.0000
      9 C           6.3744    4.1886    0.6323 C.3     1  UNL1        0.0000
     10 H           5.7435    5.0452    0.8521 H       1  UNL1        0.0000
     11 H           6.8086    4.3457   -0.3511 H       1  UNL1        0.0000
     12 H           7.1867    4.1920    1.3525 H       1  UNL1        0.0000
     13 C           3.9874    2.6696   -0.5722 C.3     1  UNL1        0.0000
     14 H           3.4778    1.7195   -0.6981 H       1  UNL1        0.0000
     15 H           4.3840    2.9530   -1.5429 H       1  UNL1        0.0000
     16 H           3.2402    3.4105   -0.3037 H       1  UNL1        0.0000
@<TRIPOS>BOND
     1    15    13    1
     2     7     5    1
     3    14    13    1
     4    13    16    1
     5    13     1    1
     6    11     9    1
     7     8     5    1
     8     5     6    1
     9     5     1    1
    10     9     1    1
    11     9    10    1
    12     9    12    1
    13     1     2    1
    14     4     2    1
    15     2     3    1
