@<TRIPOS>MOLECULE
2
 16 15 0 0 0
SMALL
GASTEIGER

@<TRIPOS>ATOM
      1 SI          6.4224    5.2387    5.7140 Si      1  UNL1        0.0000
      2 C           5.1899    5.1788    4.2981 C.3     1  UNL1        0.0000
      3 H           5.7789    5.1452    3.3683 H       1  UNL1        0.0000
      4 H           4.6543    6.1383    4.2607 H       1  UNL1        0.0000
      5 C           5.5674    5.6408    7.3924 C.3     1  UNL1        0.0000
      6 H           5.3832    6.7062    7.5004 H       1  UNL1        0.0000
      7 H           6.1806    5.3354    8.2351 H       1  UNL1        0.0000
      8 H           4.6129    5.1289    7.4749 H       1  UNL1        0.0000
      9 C           7.3234    3.5554    5.8597 C.3     1  UNL1        0.0000
     10 H           6.5963    2.7489    5.8179 H       1  UNL1        0.0000
     11 H           7.8867    3.4571    6.7833 H       1  UNL1        0.0000
     12 H           8.0169    3.4156    5.0360 H       1  UNL1        0.0000
     13 C           7.8079    6.5704    5.5640 C.3     1  UNL1        0.0000
     14 H           8.3971    6.4160    4.6653 H       1  UNL1        0.0000
     15 H           8.4899    6.5486    6.4089 H       1  UNL1        0.0000
     16 H           7.3900    7.5715    5.5086 H       1  UNL1        0.0000
@<TRIPOS>BOND
     1     3     2    1
     2     4     2    1
     3     2     1    1
     4    14    13    1
     5    12     9    1
     6    16    13    1
     7    13     1    1
     8    13    15    1
     9     1     9    1
    10     1     5    1
    11    10     9    1
    12     9    11    1
    13     5     8    1
    14     5     6    1
    15     5     7    1
