@<TRIPOS>MOLECULE
1
 4 3 0 0 0
SMALL
GASTEIGER

@<TRIPOS>ATOM
      1 C           6.9287    0.9953    5.8527 C.3     1  UNL1       -0.0681
      2 H           6.5702    1.1291    6.8819 H       1  UNL1        0.0227
      3 H           7.1133   -0.0820    5.7222 H       1  UNL1        0.0227
      4 H           7.9069    1.4821    5.7982 H       1  UNL1        0.0227
@<TRIPOS>BOND
     1     3     1    1
     2     4     1    1
     3     1     2    1
