@<TRIPOS>MOLECULE
1
 37 37 0 0 0
SMALL
GASTEIGER

@<TRIPOS>ATOM
      1 C          16.3313   -0.5987   -0.4207 C.1     1  UNL1        0.0000
      2 C          17.4756   -0.5721   -0.8495 C.1     1  UNL1        0.0000
      3 C          18.7925   -0.4669   -1.3363 C.ar    1  UNL1        0.0000
      4 C          19.0479    0.4389   -2.3861 C.ar    1  UNL1        0.0000
      5 C          20.3566    0.5799   -2.8230 C.ar    1  UNL1        0.0000
      6 H          20.5752    1.2718   -3.6242 H       1  UNL1        0.0000
      7 C          21.3899   -0.1482   -2.2562 C.ar    1  UNL1        0.0000
      8 H          22.4049   -0.0173   -2.6091 H       1  UNL1        0.0000
      9 C          21.1159   -1.0552   -1.2470 C.ar    1  UNL1        0.0000
     10 H          21.9243   -1.6341   -0.8222 H       1  UNL1        0.0000
     11 C          19.8257   -1.2381   -0.7691 C.ar    1  UNL1        0.0000
     12 SI         17.6095    1.3761   -3.1979 Si      1  UNL1        0.0000
     13 C          18.3009    2.3916   -4.6697 C.3     1  UNL1        0.0000
     14 H          17.4978    2.9167   -5.1771 H       1  UNL1        0.0000
     15 H          18.7895    1.7574   -5.4026 H       1  UNL1        0.0000
     16 H          19.0190    3.1365   -4.3416 H       1  UNL1        0.0000
     17 C          16.7773    2.6112   -2.0073 C.3     1  UNL1        0.0000
     18 H          16.1518    2.0928   -1.2828 H       1  UNL1        0.0000
     19 H          16.1441    3.3079   -2.5490 H       1  UNL1        0.0000
     20 H          17.5067    3.1937   -1.4513 H       1  UNL1        0.0000
     21 C          16.3422    0.1376   -3.9091 C.3     1  UNL1        0.0000
     22 H          15.6399   -0.1799   -3.1410 H       1  UNL1        0.0000
     23 H          16.8293   -0.7550   -4.2920 H       1  UNL1        0.0000
     24 H          15.7711    0.5760   -4.7218 H       1  UNL1        0.0000
     25 SI         19.4243   -2.5328    0.5532 Si      1  UNL1        0.0000
     26 C          21.0407   -3.4025    1.1041 C.3     1  UNL1        0.0000
     27 H          20.8313   -4.1486    1.8646 H       1  UNL1        0.0000
     28 H          21.7515   -2.6989    1.5262 H       1  UNL1        0.0000
     29 H          21.5262   -3.9097    0.2762 H       1  UNL1        0.0000
     30 C          18.2833   -3.8625   -0.2047 C.3     1  UNL1        0.0000
     31 H          18.2311   -4.7539    0.4132 H       1  UNL1        0.0000
     32 H          18.6295   -4.1637   -1.1898 H       1  UNL1        0.0000
     33 H          17.2762   -3.4733   -0.3138 H       1  UNL1        0.0000
     34 C          18.6367   -1.7622    2.1079 C.3     1  UNL1        0.0000
     35 H          18.5238   -2.4991    2.8969 H       1  UNL1        0.0000
     36 H          17.6509   -1.3664    1.8808 H       1  UNL1        0.0000
     37 H          19.2396   -0.9472    2.4983 H       1  UNL1        0.0000
@<TRIPOS>BOND
     1    15    13    1
     2    14    13    1
     3    24    21    1
     4    13    16    1
     5    13    12    1
     6    23    21    1
     7    21    12    1
     8    21    22    1
     9     6     5    1
    10    12     4    1
    11    12    17    1
    12     5     4   ar
    13     5     7   ar
    14     8     7    1
    15    19    17    1
    16     4     3   ar
    17     7     9   ar
    18    17    20    1
    19    17    18    1
    20     3     2    1
    21     3    11   ar
    22     9    10    1
    23     9    11   ar
    24    32    30    1
    25     2     1    3
    26    11    25    1
    27    33    30    1
    28    30    31    1
    29    30    25    1
    30    29    26    1
    31    25    26    1
    32    25    34    1
    33    26    28    1
    34    26    27    1
    35    36    34    1
    36    34    37    1
    37    34    35    1
