@<TRIPOS>MOLECULE
1
 37 37 0 0 0
SMALL
GASTEIGER

@<TRIPOS>ATOM
      1 C          13.9260   -1.3357    1.5185 C.1     1  UNL1        0.0000
      2 C          13.3410   -1.9310    2.4114 C.1     1  UNL1        0.0000
      3 C          12.6239   -2.6400    3.3933 C.ar    1  UNL1        0.0000
      4 C          11.2323   -2.4350    3.4883 C.ar    1  UNL1        0.0000
      5 C          10.5266   -3.1753    4.4251 C.ar    1  UNL1        0.0000
      6 H           9.4581   -3.0370    4.5127 H       1  UNL1        0.0000
      7 C          11.1611   -4.0878    5.2520 C.ar    1  UNL1        0.0000
      8 H          10.5891   -4.6584    5.9725 H       1  UNL1        0.0000
      9 C          12.5322   -4.2570    5.1619 C.ar    1  UNL1        0.0000
     10 H          13.0233   -4.9585    5.8220 H       1  UNL1        0.0000
     11 C          13.2901   -3.5441    4.2436 C.ar    1  UNL1        0.0000
     12 SI         10.3895   -1.1382    2.3862 Si      1  UNL1        0.0000
     13 C          11.1595    0.5832    2.6842 C.3     1  UNL1        0.0000
     14 H          10.4677    1.3777    2.4212 H       1  UNL1        0.0000
     15 H          12.0591    0.7117    2.0856 H       1  UNL1        0.0000
     16 H          11.4399    0.7207    3.7248 H       1  UNL1        0.0000
     17 C          10.4473   -1.6049    0.5384 C.3     1  UNL1        0.0000
     18 H           9.7511   -1.0027   -0.0380 H       1  UNL1        0.0000
     19 H          10.1930   -2.6483    0.3746 H       1  UNL1        0.0000
     20 H          11.4416   -1.4417    0.1276 H       1  UNL1        0.0000
     21 C           8.5414   -1.0270    2.8845 C.3     1  UNL1        0.0000
     22 H           8.0356   -0.2704    2.2929 H       1  UNL1        0.0000
     23 H           8.4212   -0.7578    3.9291 H       1  UNL1        0.0000
     24 H           8.0236   -1.9667    2.7205 H       1  UNL1        0.0000
     25 SI         15.1748   -3.7090    4.1568 Si      1  UNL1        0.0000
     26 C          15.7731   -4.2930    2.4443 C.3     1  UNL1        0.0000
     27 H          16.8406   -4.4896    2.4485 H       1  UNL1        0.0000
     28 H          15.5794   -3.5336    1.6919 H       1  UNL1        0.0000
     29 H          15.2688   -5.2037    2.1336 H       1  UNL1        0.0000
     30 C          15.7583   -5.0084    5.4389 C.3     1  UNL1        0.0000
     31 H          16.8379   -5.1181    5.4051 H       1  UNL1        0.0000
     32 H          15.3262   -5.9853    5.2459 H       1  UNL1        0.0000
     33 H          15.4924   -4.7210    6.4512 H       1  UNL1        0.0000
     34 C          15.9730   -2.0392    4.6252 C.3     1  UNL1        0.0000
     35 H          17.0300   -2.1434    4.8506 H       1  UNL1        0.0000
     36 H          15.4913   -1.6031    5.4962 H       1  UNL1        0.0000
     37 H          15.8750   -1.3340    3.8062 H       1  UNL1        0.0000
@<TRIPOS>BOND
     1    18    17    1
     2    20    17    1
     3    19    17    1
     4    17    12    1
     5     1     2    3
     6    28    26    1
     7    15    13    1
     8    29    26    1
     9    22    21    1
    10    12    13    1
    11    12    21    1
    12    12     4    1
    13     2     3    1
    14    14    13    1
    15    26    27    1
    16    26    25    1
    17    13    16    1
    18    24    21    1
    19    21    23    1
    20     3     4   ar
    21     3    11   ar
    22     4     5   ar
    23    37    34    1
    24    25    11    1
    25    25    34    1
    26    25    30    1
    27    11     9   ar
    28     5     6    1
    29     5     7   ar
    30    34    35    1
    31    34    36    1
    32     9     7   ar
    33     9    10    1
    34    32    30    1
    35     7     8    1
    36    31    30    1
    37    30    33    1
