@<TRIPOS>MOLECULE
1
 37 37 0 0 0
SMALL
GASTEIGER

@<TRIPOS>ATOM
      1 C          13.4522   -0.8618   -1.5192 C.1     1  UNL1        0.0000
      2 C          12.8571   -1.4470   -2.4121 C.1     1  UNL1        0.0000
      3 C          12.1476   -2.1645   -3.3932 C.ar    1  UNL1        0.0000
      4 C          12.3526   -3.5562   -3.4879 C.ar    1  UNL1        0.0000
      5 C          11.6125   -4.2621   -4.4246 C.ar    1  UNL1        0.0000
      6 H          11.7509   -5.3306   -4.5119 H       1  UNL1        0.0000
      7 C          10.7005   -3.6277   -5.2522 C.ar    1  UNL1        0.0000
      8 H          10.1301   -4.2000   -5.9727 H       1  UNL1        0.0000
      9 C          10.5317   -2.2566   -5.1629 C.ar    1  UNL1        0.0000
     10 H           9.8299   -1.7657   -5.8229 H       1  UNL1        0.0000
     11 C          11.2442   -1.4985   -4.2444 C.ar    1  UNL1        0.0000
     12 SI         13.6489   -4.3988   -2.3852 Si      1  UNL1        0.0000
     13 C          15.3706   -3.6290   -2.6825 C.3     1  UNL1        0.0000
     14 H          16.1650   -4.3210   -2.4195 H       1  UNL1        0.0000
     15 H          15.4991   -2.7296   -2.0836 H       1  UNL1        0.0000
     16 H          15.5084   -3.3483   -3.7230 H       1  UNL1        0.0000
     17 C          13.1812   -4.3406   -0.5377 C.3     1  UNL1        0.0000
     18 H          13.7829   -5.0368    0.0393 H       1  UNL1        0.0000
     19 H          12.1377   -4.5946   -0.3744 H       1  UNL1        0.0000
     20 H          13.3443   -3.3462   -0.1269 H       1  UNL1        0.0000
     21 C          13.7604   -6.2470   -2.8830 C.3     1  UNL1        0.0000
     22 H          14.5166   -6.7527   -2.2910 H       1  UNL1        0.0000
     23 H          14.0300   -6.3674   -3.9275 H       1  UNL1        0.0000
     24 H          12.8206   -6.7648   -2.7194 H       1  UNL1        0.0000
     25 SI         11.0789    0.3862   -4.1579 Si      1  UNL1        0.0000
     26 C          10.4946    0.9849   -2.4456 C.3     1  UNL1        0.0000
     27 H          10.2976    2.0523   -2.4503 H       1  UNL1        0.0000
     28 H          11.2540    0.7917   -1.6931 H       1  UNL1        0.0000
     29 H           9.5841    0.4803   -2.1349 H       1  UNL1        0.0000
     30 C           9.7797    0.9695   -5.4404 C.3     1  UNL1        0.0000
     31 H           9.6701    2.0491   -5.4067 H       1  UNL1        0.0000
     32 H           8.8028    0.5374   -5.2474 H       1  UNL1        0.0000
     33 H          10.0672    0.7034   -6.4527 H       1  UNL1        0.0000
     34 C          12.7488    1.1845   -4.6261 C.3     1  UNL1        0.0000
     35 H          12.6444    2.2414   -4.8516 H       1  UNL1        0.0000
     36 H          13.1852    0.7029   -5.4969 H       1  UNL1        0.0000
     37 H          13.4538    1.0867   -3.8068 H       1  UNL1        0.0000
@<TRIPOS>BOND
     1    33    30    1
     2     8     7    1
     3    10     9    1
     4    36    34    1
     5    30    31    1
     6    30    32    1
     7    30    25    1
     8     7     9   ar
     9     7     5   ar
    10     9    11   ar
    11    35    34    1
    12    34    25    1
    13    34    37    1
    14     6     5    1
    15     5     4   ar
    16    11    25    1
    17    11     3   ar
    18    25    26    1
    19    23    21    1
    20    16    13    1
    21     4     3   ar
    22     4    12    1
    23     3     2    1
    24    21    24    1
    25    21    12    1
    26    21    22    1
    27    13    14    1
    28    13    12    1
    29    13    15    1
    30    27    26    1
    31    26    29    1
    32    26    28    1
    33     2     1    3
    34    12    17    1
    35    17    19    1
    36    17    20    1
    37    17    18    1
