@<TRIPOS>MOLECULE
1
 37 37 0 0 0
SMALL
GASTEIGER

@<TRIPOS>ATOM
      1 C          14.1900    1.5426    0.4207 C.1     1  UNL1        0.0000
      2 C          14.2159    2.6869    0.8496 C.1     1  UNL1        0.0000
      3 C          14.3214    4.0039    1.3360 C.ar    1  UNL1        0.0000
      4 C          15.2265    4.2593    2.3864 C.ar    1  UNL1        0.0000
      5 C          15.3671    5.5681    2.8233 C.ar    1  UNL1        0.0000
      6 H          16.0590    5.7869    3.6245 H       1  UNL1        0.0000
      7 C          14.6394    6.6013    2.2561 C.ar    1  UNL1        0.0000
      8 H          14.7700    7.6164    2.6089 H       1  UNL1        0.0000
      9 C          13.7327    6.3271    1.2466 C.ar    1  UNL1        0.0000
     10 H          13.1538    7.1354    0.8215 H       1  UNL1        0.0000
     11 C          13.5501    5.0370    0.7688 C.ar    1  UNL1        0.0000
     12 SI         16.1635    2.8210    3.1986 Si      1  UNL1        0.0000
     13 C          17.1788    3.5126    4.6706 C.3     1  UNL1        0.0000
     14 H          17.7036    2.7095    5.1781 H       1  UNL1        0.0000
     15 H          16.5444    4.0013    5.4032 H       1  UNL1        0.0000
     16 H          17.9237    4.2306    4.3425 H       1  UNL1        0.0000
     17 C          17.3988    1.9884    2.0084 C.3     1  UNL1        0.0000
     18 H          16.8804    1.3631    1.2839 H       1  UNL1        0.0000
     19 H          18.0950    1.3550    2.5505 H       1  UNL1        0.0000
     20 H          17.9818    2.7175    1.4526 H       1  UNL1        0.0000
     21 C          14.9248    1.5538    3.9097 C.3     1  UNL1        0.0000
     22 H          14.6074    0.8515    3.1415 H       1  UNL1        0.0000
     23 H          14.0322    2.0410    4.2924 H       1  UNL1        0.0000
     24 H          15.3632    0.9827    4.7224 H       1  UNL1        0.0000
     25 SI         12.2556    4.6351   -0.5538 Si      1  UNL1        0.0000
     26 C          11.3859    6.2514   -1.1051 C.3     1  UNL1        0.0000
     27 H          10.6401    6.0419   -1.8656 H       1  UNL1        0.0000
     28 H          12.0895    6.9622   -1.5270 H       1  UNL1        0.0000
     29 H          10.8785    6.7368   -0.2773 H       1  UNL1        0.0000
     30 C          10.9260    3.4939    0.2041 C.3     1  UNL1        0.0000
     31 H          10.0349    3.4414   -0.4141 H       1  UNL1        0.0000
     32 H          10.6245    3.8404    1.1890 H       1  UNL1        0.0000
     33 H          11.3155    2.4870    0.3136 H       1  UNL1        0.0000
     34 C          13.0268    3.8476   -2.1082 C.3     1  UNL1        0.0000
     35 H          12.2901    3.7346   -2.8975 H       1  UNL1        0.0000
     36 H          13.4225    2.8618   -1.8810 H       1  UNL1        0.0000
     37 H          13.8419    4.4505   -2.4985 H       1  UNL1        0.0000
@<TRIPOS>BOND
     1    35    34    1
     2    37    34    1
     3    34    36    1
     4    34    25    1
     5    27    26    1
     6    28    26    1
     7    26    25    1
     8    26    29    1
     9    25    30    1
    10    25    11    1
    11    31    30    1
    12    30    33    1
    13    30    32    1
    14     1     2    3
    15    11     9   ar
    16    11     3   ar
    17    10     9    1
    18     2     3    1
    19     9     7   ar
    20    18    17    1
    21     3     4   ar
    22    20    17    1
    23    17    19    1
    24    17    12    1
    25     7     8    1
    26     7     5   ar
    27     4     5   ar
    28     4    12    1
    29     5     6    1
    30    22    21    1
    31    12    21    1
    32    12    13    1
    33    21    23    1
    34    21    24    1
    35    16    13    1
    36    13    14    1
    37    13    15    1
