@<TRIPOS>MOLECULE
2
 16 15 0 0 0
SMALL
GASTEIGER

@<TRIPOS>ATOM
      1 SI          7.6600    3.1860    2.5325 Si      1  UNL1        0.0000
      2 C           5.8174    3.6602    2.3274 C.3     1  UNL1        0.0000
      3 C           8.4673    2.7780    0.8553 C.3     1  UNL1        0.0000
      4 C           8.5383    4.6919    3.3205 C.3     1  UNL1        0.0000
      5 C           7.7570    1.7020    3.7315 C.3     1  UNL1        0.0000
      6 H           5.3515    3.7181    3.3104 H       1  UNL1        0.0000
      7 H           5.7469    4.6427    1.8587 H       1  UNL1        0.0000
      8 H           7.9181    1.9715    0.3758 H       1  UNL1        0.0000
      9 H           9.5000    2.4626    0.9677 H       1  UNL1        0.0000
     10 H           8.4493    3.6316    0.1848 H       1  UNL1        0.0000
     11 H           8.5155    5.5566    2.6665 H       1  UNL1        0.0000
     12 H           8.0798    4.9768    4.2613 H       1  UNL1        0.0000
     13 H           9.5780    4.4598    3.5209 H       1  UNL1        0.0000
     14 H           7.4586    1.9765    4.7386 H       1  UNL1        0.0000
     15 H           8.7632    1.2995    3.7849 H       1  UNL1        0.0000
     16 H           7.0987    0.9093    3.3893 H       1  UNL1        0.0000
@<TRIPOS>BOND
     1    10     3    1
     2     8     3    1
     3     3     9    1
     4     3     1    1
     5     7     2    1
     6     2     1    1
     7     2     6    1
     8     1     4    1
     9     1     5    1
    10    11     4    1
    11     4    13    1
    12     4    12    1
    13    16     5    1
    14     5    15    1
    15     5    14    1
