@<TRIPOS>MOLECULE
11
 23 23 0 0 0
SMALL
GASTEIGER

@<TRIPOS>ATOM
      1 SI          8.1272   10.6288    6.8072 Si      1  UNL1        0.0000
      2 N           6.1868   11.3619    8.6576 N.pl3   1  UNL1        0.0000
      3 H           5.8818   11.8854    7.8388 H       1  UNL1        0.0000
      4 C           7.2929   10.6009    8.5260 C.3     1  UNL1        0.0000
      5 C           7.6962    9.8612    9.6088 C.2     1  UNL1        0.0000
      6 H           8.5787    9.2464    9.5474 H       1  UNL1        0.0000
      7 C           6.9357    9.9106   10.7855 C.2     1  UNL1        0.0000
      8 H           7.2396    9.3232   11.6408 H       1  UNL1        0.0000
      9 C           5.8085   10.6903   10.8436 C.2     1  UNL1        0.0000
     10 H           5.2224   10.7075   11.7487 H       1  UNL1        0.0000
     11 C           5.3807   11.4782    9.7451 C.2     1  UNL1        0.0000
     12 C           6.8113   10.0004    5.5823 C.3     1  UNL1        0.0000
     13 H           6.4589    9.0084    5.8496 H       1  UNL1        0.0000
     14 H           7.2093    9.9449    4.5740 H       1  UNL1        0.0000
     15 H           5.9458   10.6574    5.5536 H       1  UNL1        0.0000
     16 C           8.5854   12.4431    6.4501 C.3     1  UNL1        0.0000
     17 H           7.7009   13.0687    6.3736 H       1  UNL1        0.0000
     18 H           9.1253   12.5312    5.5124 H       1  UNL1        0.0000
     19 H           9.2162   12.8599    7.2301 H       1  UNL1        0.0000
     20 C           9.6678    9.5110    6.8344 C.3     1  UNL1        0.0000
     21 H          10.1630    9.5139    5.8684 H       1  UNL1        0.0000
     22 H           9.4102    8.4813    7.0636 H       1  UNL1        0.0000
     23 H          10.3920    9.8448    7.5714 H       1  UNL1        0.0000
@<TRIPOS>BOND
     1    14    12    1
     2    18    16    1
     3    15    12    1
     4    12    13    1
     5    12     1    1
     6    21    20    1
     7    17    16    1
     8    16     1    1
     9    16    19    1
    10     1    20    1
    11     1     4    1
    12    20    22    1
    13    20    23    1
    14     3     2    1
    15     4     2    1
    16     4     5    1
    17     2    11    1
    18     6     5    1
    19     5     7    2
    20    11     9    2
    21     7     9    1
    22     7     8    1
    23     9    10    1
