@<TRIPOS>MOLECULE
1
 11 11 0 0 0
SMALL
GASTEIGER

@<TRIPOS>ATOM
      1 C           4.5466   14.3104    9.7928 C.ar    1  UNL1       -0.0179
      2 C           5.8667   14.6123    9.4386 C.ar    1  UNL1       -0.0540
      3 H           6.5141   13.8488    9.0262 H       1  UNL1        0.0624
      4 C           6.4177   15.8715    9.6147 C.ar    1  UNL1       -0.0612
      5 H           7.4437   16.0519    9.3209 H       1  UNL1        0.0618
      6 C           5.6692   16.8929   10.1687 C.ar    1  UNL1       -0.0617
      7 H           6.0947   17.8769   10.3065 H       1  UNL1        0.0618
      8 C           4.3682   16.6252   10.5531 C.ar    1  UNL1       -0.0612
      9 H           3.7668   17.4043   11.0028 H       1  UNL1        0.0618
     10 C           3.8281   15.3635   10.3701 C.ar    1  UNL1       -0.0540
     11 H           2.8094   15.2103   10.6977 H       1  UNL1        0.0624
@<TRIPOS>BOND
     1     3     2    1
     2     5     4    1
     3     2     4   ar
     4     2     1   ar
     5     4     6   ar
     6     1    10   ar
     7     6     7    1
     8     6     8   ar
     9    10     8   ar
    10    10    11    1
    11     8     9    1
