@<TRIPOS>MOLECULE
1
 11 11 0 0 0
SMALL
GASTEIGER

@<TRIPOS>ATOM
      1 C           3.6002   12.4101    7.6630 C.ar    1  UNL1       -0.0179
      2 C           4.4713   13.0713    6.7843 C.ar    1  UNL1       -0.0540
      3 H           5.2222   13.7459    7.1742 H       1  UNL1        0.0624
      4 C           4.3736   12.9550    5.4053 C.ar    1  UNL1       -0.0612
      5 H           5.0706   13.4881    4.7717 H       1  UNL1        0.0618
      6 C           3.3862   12.1712    4.8378 C.ar    1  UNL1       -0.0617
      7 H           3.3091   12.0720    3.7644 H       1  UNL1        0.0618
      8 C           2.4857   11.5328    5.6726 C.ar    1  UNL1       -0.0612
      9 H           1.6903   10.9340    5.2491 H       1  UNL1        0.0618
     10 C           2.5932   11.6559    7.0476 C.ar    1  UNL1       -0.0540
     11 H           1.8567   11.1453    7.6522 H       1  UNL1        0.0624
@<TRIPOS>BOND
     1     7     6    1
     2     5     4    1
     3     6     4   ar
     4     6     8   ar
     5     9     8    1
     6     4     2   ar
     7     8    10   ar
     8     2     3    1
     9     2     1   ar
    10    10    11    1
    11    10     1   ar
