@<TRIPOS>MOLECULE
2
 16 15 0 0 0
SMALL
GASTEIGER

@<TRIPOS>ATOM
      1 SI          9.9435    1.3620    7.9495 Si      1  UNL1        0.0000
      2 C           8.8163    2.5945    7.0975 C.3     1  UNL1        0.0000
      3 H           7.8036    2.1629    7.0820 H       1  UNL1        0.0000
      4 H           9.1172    2.7263    6.0448 H       1  UNL1        0.0000
      5 C          10.2675   -0.2625    6.9599 C.3     1  UNL1        0.0000
      6 H          10.6747   -0.0528    5.9749 H       1  UNL1        0.0000
      7 H           9.3499   -0.8251    6.8178 H       1  UNL1        0.0000
      8 H          10.9717   -0.9124    7.4700 H       1  UNL1        0.0000
      9 C           9.2482    0.8125    9.6484 C.3     1  UNL1        0.0000
     10 H           9.2961    1.6153   10.3776 H       1  UNL1        0.0000
     11 H           9.8121   -0.0280   10.0418 H       1  UNL1        0.0000
     12 H           8.2126    0.4963    9.5721 H       1  UNL1        0.0000
     13 C          11.6917    2.0871    8.2854 C.3     1  UNL1        0.0000
     14 H          12.2995    2.1043    7.3867 H       1  UNL1        0.0000
     15 H          12.2202    1.4845    9.0174 H       1  UNL1        0.0000
     16 H          11.6245    3.0996    8.6774 H       1  UNL1        0.0000
@<TRIPOS>BOND
     1     6     5    1
     2     4     2    1
     3     7     5    1
     4     5     8    1
     5     5     1    1
     6     3     2    1
     7     2     1    1
     8    14    13    1
     9     1    13    1
    10     1     9    1
    11    13    16    1
    12    13    15    1
    13    12     9    1
    14     9    11    1
    15     9    10    1
