@<TRIPOS>MOLECULE
2
 16 15 0 0 0
SMALL
GASTEIGER

@<TRIPOS>ATOM
      1 SI          2.8370    6.6118    1.3321 Si      1  UNL1        0.0000
      2 C           4.0038    7.8594    2.1261 C.3     1  UNL1        0.0000
      3 H           5.0088    7.4168    2.1568 H       1  UNL1        0.0000
      4 H           3.7097    8.0111    3.1735 H       1  UNL1        0.0000
      5 C           3.4487    6.0507   -0.3933 C.3     1  UNL1        0.0000
      6 H           4.4832    5.7238   -0.3664 H       1  UNL1        0.0000
      7 H           3.3721    6.8462   -1.1274 H       1  UNL1        0.0000
      8 H           2.8577    5.2141   -0.7536 H       1  UNL1        0.0000
      9 C           2.5831    5.0083    2.3621 C.3     1  UNL1        0.0000
     10 H           3.5067    4.4446    2.4493 H       1  UNL1        0.0000
     11 H           1.8447    4.3548    1.9085 H       1  UNL1        0.0000
     12 H           2.2436    5.2328    3.3687 H       1  UNL1        0.0000
     13 C           1.0957    7.3770    1.0989 C.3     1  UNL1        0.0000
     14 H           0.5424    7.4019    2.0315 H       1  UNL1        0.0000
     15 H           0.5089    6.8001    0.3913 H       1  UNL1        0.0000
     16 H           1.1648    8.3943    0.7233 H       1  UNL1        0.0000
@<TRIPOS>BOND
     1     7     5    1
     2     8     5    1
     3     5     6    1
     4     5     1    1
     5    15    13    1
     6    16    13    1
     7    13     1    1
     8    13    14    1
     9     1     2    1
    10     1     9    1
    11    11     9    1
    12     2     3    1
    13     2     4    1
    14     9    10    1
    15     9    12    1
