@<TRIPOS>MOLECULE
1
 16 15 0 0 0
SMALL
GASTEIGER

@<TRIPOS>ATOM
      1 C          -1.1412    2.6447    3.3744 C.3     1  UNL1        0.0000
      2 SI         -1.3343    0.9525    2.5683 Si      1  UNL1        0.0000
      3 C          -1.7221   -0.4047    3.8663 C.3     1  UNL1        0.0000
      4 C          -2.7502    0.8364    1.2666 C.3     1  UNL1        0.0000
      5 C           0.2682    0.4028    1.6594 C.3     1  UNL1        0.0000
      6 H          -1.7143    3.3883    2.7993 H       1  UNL1        0.0000
      7 H          -1.6530    2.5899    4.3491 H       1  UNL1        0.0000
      8 H          -1.7653   -1.3929    3.4177 H       1  UNL1        0.0000
      9 H          -2.6767   -0.2244    4.3510 H       1  UNL1        0.0000
     10 H          -0.9611   -0.4273    4.6391 H       1  UNL1        0.0000
     11 H          -2.8376   -0.1675    0.8619 H       1  UNL1        0.0000
     12 H          -3.7077    1.0942    1.7084 H       1  UNL1        0.0000
     13 H          -2.5903    1.5086    0.4280 H       1  UNL1        0.0000
     14 H           0.3053   -0.6745    1.5241 H       1  UNL1        0.0000
     15 H           1.1339    0.6967    2.2505 H       1  UNL1        0.0000
     16 H           0.3615    0.8550    0.6758 H       1  UNL1        0.0000
@<TRIPOS>BOND
     1    13     4    1
     2    16     5    1
     3    11     4    1
     4     4    12    1
     5     4     2    1
     6    14     5    1
     7     5    15    1
     8     5     2    1
     9     2     1    1
    10     2     3    1
    11     6     1    1
    12     1     7    1
    13     8     3    1
    14     3     9    1
    15     3    10    1
