@<TRIPOS>MOLECULE
1
 16 15 0 0 0
SMALL
GASTEIGER

@<TRIPOS>ATOM
      1 C           0.1837    4.6979    5.7226 C.3     1  UNL1        0.0000
      2 SI         -1.0841    6.0627    5.4570 Si      1  UNL1        0.0000
      3 C          -2.8808    5.4230    5.6251 C.3     1  UNL1        0.0000
      4 C          -0.9402    7.5805    6.6308 C.3     1  UNL1        0.0000
      5 C          -0.9108    6.7687    3.6648 C.3     1  UNL1        0.0000
      6 H          -0.2705    3.9560    6.3987 H       1  UNL1        0.0000
      7 H           1.0486    5.0977    6.2725 H       1  UNL1        0.0000
      8 H          -3.6067    6.2040    5.4190 H       1  UNL1        0.0000
      9 H          -3.0739    5.0533    6.6270 H       1  UNL1        0.0000
     10 H          -3.0666    4.6077    4.9333 H       1  UNL1        0.0000
     11 H          -1.6763    8.3429    6.3932 H       1  UNL1        0.0000
     12 H          -1.0947    7.2896    7.6650 H       1  UNL1        0.0000
     13 H           0.0403    8.0433    6.5667 H       1  UNL1        0.0000
     14 H          -1.8608    6.7484    3.1402 H       1  UNL1        0.0000
     15 H          -0.5634    7.7972    3.6555 H       1  UNL1        0.0000
     16 H          -0.2021    6.1678    3.0851 H       1  UNL1        0.0000
@<TRIPOS>BOND
     1    16     5    1
     2    14     5    1
     3    15     5    1
     4     5     2    1
     5    10     3    1
     6     8     3    1
     7     2     3    1
     8     2     1    1
     9     2     4    1
    10     3     9    1
    11     1     7    1
    12     1     6    1
    13    11     4    1
    14    13     4    1
    15     4    12    1
