@<TRIPOS>MOLECULE
1
 11 11 0 0 0
SMALL
GASTEIGER

@<TRIPOS>ATOM
      1 C           3.8811    3.4736    5.3762 C.ar    1  UNL1       -0.0179
      2 C           2.8709    2.5850    4.9685 C.ar    1  UNL1       -0.0540
      3 C           3.0178    1.2065    5.0317 C.ar    1  UNL1       -0.0612
      4 C           4.1927    0.6560    5.5152 C.ar    1  UNL1       -0.0617
      5 C           5.2144    1.4952    5.9284 C.ar    1  UNL1       -0.0612
      6 C           5.0558    2.8715    5.8562 C.ar    1  UNL1       -0.0540
      7 H           1.9421    2.9902    4.5633 H       1  UNL1        0.0624
      8 H           2.2176    0.5556    4.7010 H       1  UNL1        0.0618
      9 H           4.3128   -0.4175    5.5666 H       1  UNL1        0.0618
     10 H           6.1371    1.0704    6.3036 H       1  UNL1        0.0618
     11 H           5.8835    3.5074    6.1785 H       1  UNL1        0.0624
@<TRIPOS>BOND
     1     7     2    1
     2     8     3    1
     3     2     3   ar
     4     2     1   ar
     5     3     4   ar
     6     1     6   ar
     7     4     9    1
     8     4     5   ar
     9     6     5   ar
    10     6    11    1
    11     5    10    1
