@<TRIPOS>MOLECULE
1
 16 15 0 0 0
SMALL
GASTEIGER

@<TRIPOS>ATOM
      1 C          -0.4264    5.4381   10.3762 C.3     1  UNL1        0.0000
      2 H          -1.3212    4.9955    9.9043 H       1  UNL1        0.0000
      3 H          -0.6206    5.3924   11.4629 H       1  UNL1        0.0000
      4 SI         -0.3499    7.2458    9.8578 Si      1  UNL1        0.0000
      5 C          -1.7906    8.3471   10.4950 C.3     1  UNL1        0.0000
      6 H          -2.7429    8.0165   10.0918 H       1  UNL1        0.0000
      7 H          -1.6606    9.3882   10.2144 H       1  UNL1        0.0000
      8 H          -1.8664    8.3077   11.5777 H       1  UNL1        0.0000
      9 C           1.2668    8.0775   10.4804 C.3     1  UNL1        0.0000
     10 H           1.1858    8.3827   11.5197 H       1  UNL1        0.0000
     11 H           1.4993    8.9670    9.9034 H       1  UNL1        0.0000
     12 H           2.1107    7.3963   10.3920 H       1  UNL1        0.0000
     13 C          -0.3648    7.3940    7.9447 C.3     1  UNL1        0.0000
     14 H           0.4990    6.9021    7.5063 H       1  UNL1        0.0000
     15 H          -0.3457    8.4323    7.6287 H       1  UNL1        0.0000
     16 H          -1.2586    6.9448    7.5221 H       1  UNL1        0.0000
@<TRIPOS>BOND
     1    14    13    1
     2    16    13    1
     3    15    13    1
     4    13     4    1
     5     4     1    1
     6     4     9    1
     7     4     5    1
     8    11     9    1
     9     2     1    1
    10     6     5    1
    11     7     5    1
    12     1     3    1
    13    12     9    1
    14     9    10    1
    15     5     8    1
