@<TRIPOS>MOLECULE
1
 16 15 0 0 0
SMALL
GASTEIGER

@<TRIPOS>ATOM
      1 C           2.8280    4.7975    8.5395 C.3     1  UNL1        0.0000
      2 H           2.2233    5.1654    7.6917 H       1  UNL1        0.0000
      3 H           3.2769    5.7085    8.9693 H       1  UNL1        0.0000
      4 SI          4.2250    3.7876    7.7810 Si      1  UNL1        0.0000
      5 C           5.5460    3.2938    9.0798 C.3     1  UNL1        0.0000
      6 H           6.1123    4.1579    9.4149 H       1  UNL1        0.0000
      7 H           6.2566    2.5872    8.6623 H       1  UNL1        0.0000
      8 H           5.0972    2.8316    9.9540 H       1  UNL1        0.0000
      9 C           3.5255    2.1840    6.9938 C.3     1  UNL1        0.0000
     10 H           3.1977    1.4848    7.7559 H       1  UNL1        0.0000
     11 H           4.2707    1.6812    6.3856 H       1  UNL1        0.0000
     12 H           2.6726    2.3984    6.3555 H       1  UNL1        0.0000
     13 C           5.1806    4.6898    6.3779 C.3     1  UNL1        0.0000
     14 H           4.5268    4.9183    5.5415 H       1  UNL1        0.0000
     15 H           6.0033    4.0924    5.9958 H       1  UNL1        0.0000
     16 H           5.5970    5.6290    6.7294 H       1  UNL1        0.0000
@<TRIPOS>BOND
     1    14    13    1
     2    15    13    1
     3    12     9    1
     4    13    16    1
     5    13     4    1
     6    11     9    1
     7     9    10    1
     8     9     4    1
     9     2     1    1
    10     4     1    1
    11     4     5    1
    12     1     3    1
    13     7     5    1
    14     5     6    1
    15     5     8    1
