@<TRIPOS>MOLECULE
2
 16 15 0 0 0
SMALL
GASTEIGER

@<TRIPOS>ATOM
      1 SI          1.5700    5.1968    8.5010 Si      1  UNL1        0.0000
      2 C           0.0557    4.6202    9.4919 C.3     1  UNL1        0.0000
      3 C           2.2952    6.7675    9.3075 C.3     1  UNL1        0.0000
      4 C           2.9562    3.8885    8.3516 C.3     1  UNL1        0.0000
      5 C           1.0310    5.6472    6.7162 C.3     1  UNL1        0.0000
      6 H          -0.4884    5.5361    9.7436 H       1  UNL1        0.0000
      7 H          -0.6183    4.0803    8.8215 H       1  UNL1        0.0000
      8 H           3.1220    7.1633    8.7258 H       1  UNL1        0.0000
      9 H           2.6676    6.5494   10.3027 H       1  UNL1        0.0000
     10 H           1.5479    7.5501    9.3947 H       1  UNL1        0.0000
     11 H           3.1173    3.3879    9.3010 H       1  UNL1        0.0000
     12 H           2.7378    3.1386    7.5980 H       1  UNL1        0.0000
     13 H           3.8915    4.3642    8.0737 H       1  UNL1        0.0000
     14 H           1.8616    6.0503    6.1461 H       1  UNL1        0.0000
     15 H           0.6580    4.7798    6.1796 H       1  UNL1        0.0000
     16 H           0.2429    6.3935    6.7201 H       1  UNL1        0.0000
@<TRIPOS>BOND
     1    14     5    1
     2    15     5    1
     3     5    16    1
     4     5     1    1
     5    12     4    1
     6    13     4    1
     7     4     1    1
     8     4    11    1
     9     1     3    1
    10     1     2    1
    11     8     3    1
    12     7     2    1
    13     3    10    1
    14     3     9    1
    15     2     6    1
