@<TRIPOS>MOLECULE
1
 15 14 0 0 0
SMALL
GASTEIGER

@<TRIPOS>ATOM
      1 C           2.5118    7.7922    3.6990 C.1     1  UNL1        0.0000
      2 C           2.2910    6.5909    3.6645 C.1     1  UNL1        0.0000
      3 SI          1.8898    4.7933    3.4372 Si      1  UNL1        0.0000
      4 C           0.1606    4.6201    2.6610 C.3     1  UNL1        0.0000
      5 C           1.9308    3.8971    5.1283 C.3     1  UNL1        0.0000
      6 C           3.2001    3.9945    2.2973 C.3     1  UNL1        0.0000
      7 H          -0.1312    3.5786    2.5548 H       1  UNL1        0.0000
      8 H          -0.5904    5.1147    3.2693 H       1  UNL1        0.0000
      9 H           0.1298    5.0738    1.6750 H       1  UNL1        0.0000
     10 H           1.6562    2.8527    5.0116 H       1  UNL1        0.0000
     11 H           2.9173    3.9190    5.5846 H       1  UNL1        0.0000
     12 H           1.2269    4.3393    5.8277 H       1  UNL1        0.0000
     13 H           2.9493    2.9587    2.0854 H       1  UNL1        0.0000
     14 H           3.2609    4.5173    1.3476 H       1  UNL1        0.0000
     15 H           4.1925    4.0036    2.7400 H       1  UNL1        0.0000
@<TRIPOS>BOND
     1    14     6    1
     2     9     4    1
     3    13     6    1
     4     6    15    1
     5     6     3    1
     6     7     4    1
     7     4     8    1
     8     4     3    1
     9     3     2    1
    10     3     5    1
    11     2     1    3
    12    10     5    1
    13     5    11    1
    14     5    12    1
