@<TRIPOS>MOLECULE
2
 16 15 0 0 0
SMALL
GASTEIGER

@<TRIPOS>ATOM
      1 SI          1.0487    2.6479    1.1455 Si      1  UNL1        0.0000
      2 C           1.4744    3.2473    2.8887 C.3     1  UNL1        0.0000
      3 C          -0.7085    1.8911    1.0455 C.3     1  UNL1        0.0000
      4 C           2.3294    1.4517    0.3855 C.3     1  UNL1        0.0000
      5 C           1.0253    4.1827   -0.0118 C.3     1  UNL1        0.0000
      6 H           2.4480    3.7487    2.8134 H       1  UNL1        0.0000
      7 H           0.7607    4.0447    3.1339 H       1  UNL1        0.0000
      8 H          -0.8576    1.1580    1.8287 H       1  UNL1        0.0000
      9 H          -0.8667    1.3952    0.0930 H       1  UNL1        0.0000
     10 H          -1.4755    2.6536    1.1470 H       1  UNL1        0.0000
     11 H           2.1972    0.4387    0.7466 H       1  UNL1        0.0000
     12 H           3.3380    1.7620    0.6411 H       1  UNL1        0.0000
     13 H           2.2521    1.4332   -0.6977 H       1  UNL1        0.0000
     14 H           2.0066    4.6425   -0.0722 H       1  UNL1        0.0000
     15 H           0.3305    4.9407    0.3364 H       1  UNL1        0.0000
     16 H           0.7296    3.9086   -1.0196 H       1  UNL1        0.0000
@<TRIPOS>BOND
     1    16     5    1
     2    13     4    1
     3    14     5    1
     4     5    15    1
     5     5     1    1
     6     9     3    1
     7     4    12    1
     8     4    11    1
     9     4     1    1
    10     3     1    1
    11     3    10    1
    12     3     8    1
    13     1     2    1
    14     6     2    1
    15     2     7    1
