@<TRIPOS>MOLECULE
2
 16 15 0 0 0
SMALL
GASTEIGER

@<TRIPOS>ATOM
      1 SI         -2.3649   -3.0018   -0.6884 Si      1  UNL1        0.0000
      2 C          -1.3040   -1.8078   -1.7035 C.3     1  UNL1        0.0000
      3 C          -2.9460   -4.5096   -1.7139 C.3     1  UNL1        0.0000
      4 C          -3.8724   -2.2234    0.1952 C.3     1  UNL1        0.0000
      5 C          -1.2691   -3.7243    0.7171 C.3     1  UNL1        0.0000
      6 H          -0.9325   -1.0308   -1.0207 H       1  UNL1        0.0000
      7 H          -0.4131   -2.3738   -2.0048 H       1  UNL1        0.0000
      8 H          -3.5029   -4.1917   -2.5869 H       1  UNL1        0.0000
      9 H          -3.5929   -5.1551   -1.1276 H       1  UNL1        0.0000
     10 H          -2.1045   -5.1097   -2.0479 H       1  UNL1        0.0000
     11 H          -4.4892   -2.9934    0.6491 H       1  UNL1        0.0000
     12 H          -3.5624   -1.5504    0.9894 H       1  UNL1        0.0000
     13 H          -4.4951   -1.6634   -0.4921 H       1  UNL1        0.0000
     14 H          -1.8310   -4.4201    1.3319 H       1  UNL1        0.0000
     15 H          -0.4114   -4.2589    0.3209 H       1  UNL1        0.0000
     16 H          -0.8922   -2.9433    1.3702 H       1  UNL1        0.0000
@<TRIPOS>BOND
     1     8     3    1
     2    10     3    1
     3     7     2    1
     4     3     9    1
     5     3     1    1
     6     2     6    1
     7     2     1    1
     8     1     4    1
     9     1     5    1
    10    13     4    1
    11     4    11    1
    12     4    12    1
    13    15     5    1
    14     5    14    1
    15     5    16    1
