@<TRIPOS>MOLECULE
2
 16 15 0 0 0
SMALL
GASTEIGER

@<TRIPOS>ATOM
      1 SI          3.2021    5.1363    1.6635 Si      1  UNL1        0.0000
      2 C           1.9682    3.8102    2.2141 C.3     1  UNL1        0.0000
      3 C           4.1643    4.7378    0.0552 C.3     1  UNL1        0.0000
      4 C           4.4627    5.6289    3.0122 C.3     1  UNL1        0.0000
      5 C           2.2033    6.7301    1.2660 C.3     1  UNL1        0.0000
      6 H           1.1430    3.8135    1.4892 H       1  UNL1        0.0000
      7 H           1.5291    4.1824    3.1509 H       1  UNL1        0.0000
      8 H           4.8479    5.5456   -0.1890 H       1  UNL1        0.0000
      9 H           4.7526    3.8346    0.1634 H       1  UNL1        0.0000
     10 H           3.4975    4.6131   -0.7931 H       1  UNL1        0.0000
     11 H           5.1635    6.3704    2.6396 H       1  UNL1        0.0000
     12 H           3.9564    6.0572    3.8714 H       1  UNL1        0.0000
     13 H           5.0343    4.7737    3.3539 H       1  UNL1        0.0000
     14 H           1.5076    6.5741    0.4471 H       1  UNL1        0.0000
     15 H           1.6269    7.0569    2.1257 H       1  UNL1        0.0000
     16 H           2.8609    7.5462    0.9837 H       1  UNL1        0.0000
@<TRIPOS>BOND
     1    10     3    1
     2     8     3    1
     3     3     9    1
     4     3     1    1
     5    14     5    1
     6    16     5    1
     7     5     1    1
     8     5    15    1
     9     6     2    1
    10     1     2    1
    11     1     4    1
    12     2     7    1
    13    11     4    1
    14     4    13    1
    15     4    12    1
