@<TRIPOS>MOLECULE
2
 16 15 0 0 0
SMALL
GASTEIGER

@<TRIPOS>ATOM
      1 SI          6.3823    1.5787   -2.5149 Si      1  UNL1        0.0000
      2 C           4.7225    2.0295   -3.3039 C.3     1  UNL1        0.0000
      3 C           7.0046   -0.1426   -3.0748 C.3     1  UNL1        0.0000
      4 C           6.4372    1.6711   -0.6040 C.3     1  UNL1        0.0000
      5 C           7.7058    2.8320   -3.1277 C.3     1  UNL1        0.0000
      6 H           4.4902    3.0679   -3.0299 H       1  UNL1        0.0000
      7 H           4.8891    2.0518   -4.3887 H       1  UNL1        0.0000
      8 H           6.2669   -0.9071   -2.8639 H       1  UNL1        0.0000
      9 H           7.9194   -0.4153   -2.5573 H       1  UNL1        0.0000
     10 H           7.2173   -0.1608   -4.1400 H       1  UNL1        0.0000
     11 H           5.5796    1.1827   -0.1563 H       1  UNL1        0.0000
     12 H           6.4569    2.7000   -0.2564 H       1  UNL1        0.0000
     13 H           7.3306    1.1861   -0.2221 H       1  UNL1        0.0000
     14 H           7.8097    2.8070   -4.2080 H       1  UNL1        0.0000
     15 H           8.6793    2.6117   -2.7015 H       1  UNL1        0.0000
     16 H           7.4507    3.8498   -2.8493 H       1  UNL1        0.0000
@<TRIPOS>BOND
     1     7     2    1
     2    14     5    1
     3    10     3    1
     4     2     6    1
     5     2     1    1
     6     5    16    1
     7     5    15    1
     8     5     1    1
     9     3     8    1
    10     3     9    1
    11     3     1    1
    12     1     4    1
    13     4    12    1
    14     4    13    1
    15     4    11    1
