@<TRIPOS>MOLECULE
1
 4 3 0 0 0
SMALL
GASTEIGER

@<TRIPOS>ATOM
      1 C           5.8486    4.7683    2.9551 C.3     1  UNL1       -0.0681
      2 H           5.3943    5.6540    3.4250 H       1  UNL1        0.0227
      3 H           6.7269    5.1269    2.3919 H       1  UNL1        0.0227
      4 H           6.2305    4.1291    3.7701 H       1  UNL1        0.0227
@<TRIPOS>BOND
     1     3     1    1
     2     1     2    1
     3     1     4    1
