@<TRIPOS>MOLECULE
1
 4 3 0 0 0
SMALL
GASTEIGER

@<TRIPOS>ATOM
      1 C           3.3244    5.1918    0.7227 C.3     1  UNL1       -0.0681
      2 H           4.0215    5.8683    0.1944 H       1  UNL1        0.0227
      3 H           2.7320    5.8360    1.3917 H       1  UNL1        0.0227
      4 H           2.6291    4.8121   -0.0445 H       1  UNL1        0.0227
@<TRIPOS>BOND
     1     4     1    1
     2     2     1    1
     3     1     3    1
