@<TRIPOS>MOLECULE
2
 18 18 0 0 0
SMALL
GASTEIGER

@<TRIPOS>ATOM
      1 N          -2.0213   -2.0236    9.7900 N.3     1  UNL1       -0.3063
      2 C          -1.4719   -1.6771    8.6535 C.3     1  UNL1        0.0936
      3 C          -1.8689   -3.2552   10.5315 C.3     1  UNL1       -0.0149
      4 C          -0.4596   -2.5454    8.0620 C.ar    1  UNL1       -0.0231
      5 C           0.7063   -2.8544    8.7658 C.ar    1  UNL1       -0.0567
      6 C           1.7152   -3.5811    8.1623 C.ar    1  UNL1       -0.0614
      7 C           1.5694   -4.0302    6.8607 C.ar    1  UNL1       -0.0617
      8 C           0.4122   -3.7350    6.1564 C.ar    1  UNL1       -0.0614
      9 C          -0.5876   -2.9874    6.7449 C.ar    1  UNL1       -0.0567
     10 H          -2.5841   -1.3122   10.2433 H       1  UNL1        0.1226
     11 H          -2.8524   -3.6275   10.8214 H       1  UNL1        0.0388
     12 H          -1.3690   -4.0000    9.9156 H       1  UNL1        0.0388
     13 H          -1.2838   -3.0872   11.4375 H       1  UNL1        0.0388
     14 H           0.8295   -2.4901    9.7750 H       1  UNL1        0.0621
     15 H           2.6184   -3.8019    8.7124 H       1  UNL1        0.0618
     16 H           2.3571   -4.6014    6.3931 H       1  UNL1        0.0618
     17 H           0.2981   -4.0798    5.1394 H       1  UNL1        0.0618
     18 H          -1.4838   -2.7338    6.2004 H       1  UNL1        0.0621
@<TRIPOS>BOND
     1    17     8    1
     2     8     9   ar
     3     8     7   ar
     4    18     9    1
     5    16     7    1
     6     9     4   ar
     7     7     6   ar
     8     4     2    1
     9     4     5   ar
    10     6    15    1
    11     6     5   ar
    12     2     1    1
    13     5    14    1
    14     1    10    1
    15     1     3    1
    16    12     3    1
    17     3    11    1
    18     3    13    1
