@<TRIPOS>MOLECULE
1
 4 3 0 0 0
SMALL
GASTEIGER

@<TRIPOS>ATOM
      1 C          10.0153    3.2429    5.0234 C.3     1  UNL1       -0.0681
      2 H          10.3527    3.7702    5.9250 H       1  UNL1        0.0227
      3 H          10.7193    2.4150    4.8786 H       1  UNL1        0.0227
      4 H           9.0543    2.7811    5.2792 H       1  UNL1        0.0227
@<TRIPOS>BOND
     1     3     1    1
     2     1     4    1
     3     1     2    1
