@<TRIPOS>MOLECULE
1
 4 3 0 0 0
SMALL
GASTEIGER

@<TRIPOS>ATOM
      1 C           9.8974    3.2258    1.6034 C.3     1  UNL1       -0.0681
      2 H           9.5197    3.7880    0.7305 H       1  UNL1        0.0227
      3 H           9.2187    2.3704    1.7320 H       1  UNL1        0.0227
      4 H          10.8635    2.7989    1.2954 H       1  UNL1        0.0227
@<TRIPOS>BOND
     1     2     1    1
     2     4     1    1
     3     1     3    1
