@<TRIPOS>MOLECULE
1
 4 3 0 0 0
SMALL
GASTEIGER

@<TRIPOS>ATOM
      1 C          10.0222    3.2258    5.0112 C.3     1  UNL1       -0.0681
      2 H          10.4002    3.7879    5.8840 H       1  UNL1        0.0227
      3 H          10.7010    2.3704    4.8826 H       1  UNL1        0.0227
      4 H           9.0563    2.7989    5.3193 H       1  UNL1        0.0227
@<TRIPOS>BOND
     1     3     1    1
     2     1     4    1
     3     1     2    1
