@<TRIPOS>MOLECULE
1
 4 3 0 0 0
SMALL
GASTEIGER

@<TRIPOS>ATOM
      1 C           9.8381    3.2420    1.5984 C.3     1  UNL1       -0.0681
      2 H           9.4995    3.7683    0.6968 H       1  UNL1        0.0227
      3 H           9.1352    2.4134    1.7441 H       1  UNL1        0.0227
      4 H          10.7994    2.7811    1.3422 H       1  UNL1        0.0227
@<TRIPOS>BOND
     1     2     1    1
     2     4     1    1
     3     1     3    1
