@<TRIPOS>MOLECULE
2
 16 15 0 0 0
SMALL
GASTEIGER

@<TRIPOS>ATOM
      1 SI          2.5502    7.9700   11.1946 Si      1  UNL1        0.0000
      2 C           2.6621    6.1429   11.6666 C.3     1  UNL1        0.0000
      3 H           1.9957    6.0068   12.5310 H       1  UNL1        0.0000
      4 H           3.6790    5.9835   12.0564 H       1  UNL1        0.0000
      5 C           1.0727    8.8246   12.0659 C.3     1  UNL1        0.0000
      6 H           0.2033    8.1767   12.1113 H       1  UNL1        0.0000
      7 H           0.7799    9.7424   11.5648 H       1  UNL1        0.0000
      8 H           1.3332    9.0809   13.0876 H       1  UNL1        0.0000
      9 C           4.1156    8.9267   11.7644 C.3     1  UNL1        0.0000
     10 H           4.1396    9.0087   12.8466 H       1  UNL1        0.0000
     11 H           4.1468    9.9347   11.3611 H       1  UNL1        0.0000
     12 H           5.0259    8.4184   11.4612 H       1  UNL1        0.0000
     13 C           2.3846    8.2588    9.2953 C.3     1  UNL1        0.0000
     14 H           3.2250    8.8226    8.9014 H       1  UNL1        0.0000
     15 H           1.4870    8.8202    9.0539 H       1  UNL1        0.0000
     16 H           2.3379    7.3189    8.7463 H       1  UNL1        0.0000
@<TRIPOS>BOND
     1    16    13    1
     2    14    13    1
     3    15    13    1
     4    13     1    1
     5     1     2    1
     6     1     9    1
     7     1     5    1
     8    11     9    1
     9    12     9    1
    10     7     5    1
    11     2     4    1
    12     2     3    1
    13     9    10    1
    14     5     6    1
    15     5     8    1
