@<TRIPOS>MOLECULE
2
 16 15 0 0 0
SMALL
GASTEIGER

@<TRIPOS>ATOM
      1 SI          8.1107   -0.3576    6.8396 Si      1  UNL1        0.0000
      2 C           6.9518    0.7007    5.8166 C.3     1  UNL1        0.0000
      3 C           7.2897   -1.9406    7.5693 C.3     1  UNL1        0.0000
      4 C           9.5951   -0.9263    5.7646 C.3     1  UNL1        0.0000
      5 C           8.7954    0.5921    8.3744 C.3     1  UNL1        0.0000
      6 H           6.3895    1.4054    6.4535 H       1  UNL1        0.0000
      7 H           6.2121    0.0553    5.3295 H       1  UNL1        0.0000
      8 H           8.0082   -2.5609    8.0966 H       1  UNL1        0.0000
      9 H           6.4973   -1.6928    8.2694 H       1  UNL1        0.0000
     10 H           6.8517   -2.5460    6.7816 H       1  UNL1        0.0000
     11 H          10.5527   -0.7165    6.2329 H       1  UNL1        0.0000
     12 H           9.5440   -0.3911    4.8128 H       1  UNL1        0.0000
     13 H           9.5607   -1.9912    5.5586 H       1  UNL1        0.0000
     14 H           9.1428   -0.0982    9.1364 H       1  UNL1        0.0000
     15 H           9.6321    1.2327    8.1126 H       1  UNL1        0.0000
     16 H           8.0321    1.2164    8.8302 H       1  UNL1        0.0000
@<TRIPOS>BOND
     1    12     4    1
     2     7     2    1
     3    13     4    1
     4     4    11    1
     5     4     1    1
     6     2     6    1
     7     2     1    1
     8    10     3    1
     9     1     3    1
    10     1     5    1
    11     3     8    1
    12     3     9    1
    13    15     5    1
    14     5    16    1
    15     5    14    1
