@<TRIPOS>MOLECULE
2
 16 15 0 0 0
SMALL
GASTEIGER

@<TRIPOS>ATOM
      1 SI          4.8894   26.0619    3.0125 Si      1  UNL1        0.0000
      2 C           6.0281   25.9887    1.5146 C.3     1  UNL1        0.0000
      3 C           4.7751   24.3508    3.8788 C.3     1  UNL1        0.0000
      4 C           3.0900   26.6197    2.6048 C.3     1  UNL1        0.0000
      5 C           5.4963   27.3608    4.2929 C.3     1  UNL1        0.0000
      6 H           5.4426   26.1174    0.5913 H       1  UNL1        0.0000
      7 H           6.7208   26.8415    1.5782 H       1  UNL1        0.0000
      8 H           3.8442   23.8395    3.6515 H       1  UNL1        0.0000
      9 H           4.8330   24.4388    4.9597 H       1  UNL1        0.0000
     10 H           5.6117   23.7344    3.5392 H       1  UNL1        0.0000
     11 H           3.0808   27.6018    2.1417 H       1  UNL1        0.0000
     12 H           2.5882   25.9360    1.9266 H       1  UNL1        0.0000
     13 H           2.4874   26.6797    3.5056 H       1  UNL1        0.0000
     14 H           5.3396   28.3709    3.9261 H       1  UNL1        0.0000
     15 H           4.9664   27.2714    5.2363 H       1  UNL1        0.0000
     16 H           6.5562   27.2502    4.4975 H       1  UNL1        0.0000
@<TRIPOS>BOND
     1     6     2    1
     2     2     7    1
     3     2     1    1
     4    12     4    1
     5    11     4    1
     6     4     1    1
     7     4    13    1
     8     1     3    1
     9     1     5    1
    10    10     3    1
    11     8     3    1
    12     3     9    1
    13    14     5    1
    14     5    16    1
    15     5    15    1
