@<TRIPOS>MOLECULE
2
 16 15 0 0 0
SMALL
GASTEIGER

@<TRIPOS>ATOM
      1 SI          1.5404    9.3444    1.6635 Si      1  UNL1        0.0000
      2 C           2.6532    7.9224    2.2122 C.3     1  UNL1        0.0000
      3 H           3.6318    8.0891    1.7280 H       1  UNL1        0.0000
      4 H           2.2682    6.9906    1.7600 H       1  UNL1        0.0000
      5 C          -0.3201    8.9572    1.9480 C.3     1  UNL1        0.0000
      6 H          -0.7094    8.3069    1.1711 H       1  UNL1        0.0000
      7 H          -0.9144    9.8661    1.9331 H       1  UNL1        0.0000
      8 H          -0.4923    8.4673    2.9016 H       1  UNL1        0.0000
      9 C           1.6924    9.8022   -0.1954 C.3     1  UNL1        0.0000
     10 H           2.7091   10.0928   -0.4430 H       1  UNL1        0.0000
     11 H           1.0426   10.6310   -0.4605 H       1  UNL1        0.0000
     12 H           1.4296    8.9636   -0.8335 H       1  UNL1        0.0000
     13 C           1.9472   10.9494    2.6368 C.3     1  UNL1        0.0000
     14 H           2.2708   10.7311    3.6531 H       1  UNL1        0.0000
     15 H           1.0885   11.6124    2.6931 H       1  UNL1        0.0000
     16 H           2.7473   11.5030    2.1576 H       1  UNL1        0.0000
@<TRIPOS>BOND
     1    12     9    1
     2    11     9    1
     3    10     9    1
     4     9     1    1
     5     6     5    1
     6     1     5    1
     7     1     2    1
     8     1    13    1
     9     3     2    1
    10     4     2    1
    11     7     5    1
    12     5     8    1
    13    16    13    1
    14    13    15    1
    15    13    14    1
