@<TRIPOS>MOLECULE
2
 16 15 0 0 0
SMALL
GASTEIGER

@<TRIPOS>ATOM
      1 SI          6.1592    9.5317    4.1548 Si      1  UNL1        0.0000
      2 C           4.6071    9.1122    5.1434 C.3     1  UNL1        0.0000
      3 H           4.0364   10.0504    5.2529 H       1  UNL1        0.0000
      4 H           4.9130    8.8522    6.1714 H       1  UNL1        0.0000
      5 C           5.7793   10.8019    2.7746 C.3     1  UNL1        0.0000
      6 H           5.0152   10.4191    2.1050 H       1  UNL1        0.0000
      7 H           6.6609   11.0265    2.1820 H       1  UNL1        0.0000
      8 H           5.4158   11.7373    3.1874 H       1  UNL1        0.0000
      9 C           7.6128   10.2349    5.1971 C.3     1  UNL1        0.0000
     10 H           7.3546   11.1962    5.6302 H       1  UNL1        0.0000
     11 H           8.5076   10.3753    4.5982 H       1  UNL1        0.0000
     12 H           7.8663    9.5676    6.0156 H       1  UNL1        0.0000
     13 C           6.8197    7.9537    3.2764 C.3     1  UNL1        0.0000
     14 H           7.4113    7.3338    3.9423 H       1  UNL1        0.0000
     15 H           7.4473    8.2037    2.4267 H       1  UNL1        0.0000
     16 H           5.9858    7.3544    2.9080 H       1  UNL1        0.0000
@<TRIPOS>BOND
     1     6     5    1
     2     7     5    1
     3    15    13    1
     4     5     8    1
     5     5     1    1
     6    16    13    1
     7    13    14    1
     8    13     1    1
     9     1     2    1
    10     1     9    1
    11    11     9    1
    12     2     3    1
    13     2     4    1
    14     9    10    1
    15     9    12    1
