@<TRIPOS>MOLECULE
2
 16 15 0 0 0
SMALL
GASTEIGER

@<TRIPOS>ATOM
      1 SI          2.0091   14.1885    7.5958 Si      1  UNL1        0.0000
      2 C           2.5731   12.4154    7.9027 C.3     1  UNL1        0.0000
      3 H           3.6691   12.3977    7.8336 H       1  UNL1        0.0000
      4 H           2.2168   11.8041    7.0628 H       1  UNL1        0.0000
      5 C           2.4782   14.8408    5.8507 C.3     1  UNL1        0.0000
      6 H           3.5521   14.8094    5.6946 H       1  UNL1        0.0000
      7 H           2.1574   15.8676    5.7046 H       1  UNL1        0.0000
      8 H           2.0186   14.2416    5.0707 H       1  UNL1        0.0000
      9 C           0.1054   14.3709    7.7238 C.3     1  UNL1        0.0000
     10 H          -0.3984   13.7848    6.9619 H       1  UNL1        0.0000
     11 H          -0.1992   15.4052    7.5918 H       1  UNL1        0.0000
     12 H          -0.2491   14.0399    8.6951 H       1  UNL1        0.0000
     13 C           2.7660   15.4242    8.8476 C.3     1  UNL1        0.0000
     14 H           2.8024   14.9983    9.8455 H       1  UNL1        0.0000
     15 H           2.1905   16.3442    8.8967 H       1  UNL1        0.0000
     16 H           3.7786   15.6936    8.5680 H       1  UNL1        0.0000
@<TRIPOS>BOND
     1     8     5    1
     2     6     5    1
     3     7     5    1
     4     5     1    1
     5    10     9    1
     6     4     2    1
     7    11     9    1
     8     1     9    1
     9     1     2    1
    10     1    13    1
    11     9    12    1
    12     3     2    1
    13    16    13    1
    14    13    15    1
    15    13    14    1
