@<TRIPOS>MOLECULE
2
 16 15 0 0 0
SMALL
GASTEIGER

@<TRIPOS>ATOM
      1 SI          2.3458    0.1657    2.4870 Si      1  UNL1        0.0000
      2 C           3.4969    0.9806    3.7611 C.3     1  UNL1        0.0000
      3 C           0.5411    0.6946    2.8552 C.3     1  UNL1        0.0000
      4 C           2.7710    0.7457    0.7129 C.3     1  UNL1        0.0000
      5 C           2.4536   -1.7373    2.5779 C.3     1  UNL1        0.0000
      6 H           3.3009    2.0637    3.7706 H       1  UNL1        0.0000
      7 H           3.2262    0.6025    4.7513 H       1  UNL1        0.0000
      8 H           0.4115    1.7694    2.7742 H       1  UNL1        0.0000
      9 H           0.2361    0.4021    3.8547 H       1  UNL1        0.0000
     10 H          -0.1449    0.2298    2.1555 H       1  UNL1        0.0000
     11 H           2.7905    1.8294    0.6306 H       1  UNL1        0.0000
     12 H           2.0472    0.3754   -0.0063 H       1  UNL1        0.0000
     13 H           3.7476    0.3647    0.4277 H       1  UNL1        0.0000
     14 H           3.4852   -2.0549    2.4512 H       1  UNL1        0.0000
     15 H           1.8603   -2.2044    1.7981 H       1  UNL1        0.0000
     16 H           2.0992   -2.1156    3.5321 H       1  UNL1        0.0000
@<TRIPOS>BOND
     1    12     4    1
     2    13     4    1
     3    11     4    1
     4     4     1    1
     5    15     5    1
     6    10     3    1
     7    14     5    1
     8     1     5    1
     9     1     3    1
    10     1     2    1
    11     5    16    1
    12     8     3    1
    13     3     9    1
    14     2     6    1
    15     2     7    1
