@<TRIPOS>MOLECULE
2
 16 15 0 0 0
SMALL
GASTEIGER

@<TRIPOS>ATOM
      1 SI          8.7973    0.2314    2.8257 Si      1  UNL1        0.0000
      2 C           7.5028    1.0129    3.9771 C.3     1  UNL1        0.0000
      3 C           8.7140   -1.6739    2.8858 C.3     1  UNL1        0.0000
      4 C          10.5433    0.7849    3.3891 C.3     1  UNL1        0.0000
      5 C           8.5541    0.8259    1.0222 C.3     1  UNL1        0.0000
      6 H           7.6747    0.6306    4.9876 H       1  UNL1        0.0000
      7 H           7.6759    2.0992    4.0150 H       1  UNL1        0.0000
      8 H           7.7049   -2.0066    2.6572 H       1  UNL1        0.0000
      9 H           8.9817   -2.0579    3.8658 H       1  UNL1        0.0000
     10 H           9.3875   -2.1218    2.1618 H       1  UNL1        0.0000
     11 H          10.6627    1.8625    3.3327 H       1  UNL1        0.0000
     12 H          11.3075    0.3388    2.7620 H       1  UNL1        0.0000
     13 H          10.7453    0.4858    4.4125 H       1  UNL1        0.0000
     14 H           7.6252    0.4250    0.6263 H       1  UNL1        0.0000
     15 H           9.3622    0.4845    0.3830 H       1  UNL1        0.0000
     16 H           8.5150    1.9099    0.9509 H       1  UNL1        0.0000
@<TRIPOS>BOND
     1    15     5    1
     2    14     5    1
     3    16     5    1
     4     5     1    1
     5    10     3    1
     6     8     3    1
     7    12     4    1
     8     1     3    1
     9     1     4    1
    10     1     2    1
    11     3     9    1
    12    11     4    1
    13     4    13    1
    14     2     7    1
    15     2     6    1
