@<TRIPOS>MOLECULE
2
 16 15 0 0 0
SMALL
GASTEIGER

@<TRIPOS>ATOM
      1 SI          5.3564   -0.1745    6.6486 Si      1  UNL1        0.0000
      2 C           5.4612   -0.8577    4.8692 C.3     1  UNL1        0.0000
      3 C           3.7636   -0.8137    7.4959 C.3     1  UNL1        0.0000
      4 C           5.3396    1.7411    6.8216 C.3     1  UNL1        0.0000
      5 C           6.8467   -0.8022    7.6724 C.3     1  UNL1        0.0000
      6 H           6.3525   -1.4895    4.7890 H       1  UNL1        0.0000
      7 H           4.5957   -1.5055    4.6925 H       1  UNL1        0.0000
      8 H           3.7406   -1.8987    7.5078 H       1  UNL1        0.0000
      9 H           2.8643   -0.4755    6.9897 H       1  UNL1        0.0000
     10 H           3.7071   -0.4745    8.5256 H       1  UNL1        0.0000
     11 H           6.2431    2.1909    6.4165 H       1  UNL1        0.0000
     12 H           5.2843    2.0266    7.8691 H       1  UNL1        0.0000
     13 H           4.4791    2.1839    6.3251 H       1  UNL1        0.0000
     14 H           6.8796   -1.8870    7.6826 H       1  UNL1        0.0000
     15 H           6.7796   -0.4677    8.7030 H       1  UNL1        0.0000
     16 H           7.7948   -0.4522    7.2751 H       1  UNL1        0.0000
@<TRIPOS>BOND
     1     7     2    1
     2     6     2    1
     3     2     1    1
     4    13     4    1
     5    11     4    1
     6     1     4    1
     7     1     3    1
     8     1     5    1
     9     4    12    1
    10     9     3    1
    11    16     5    1
    12     3     8    1
    13     3    10    1
    14     5    14    1
    15     5    15    1
