@<TRIPOS>MOLECULE
1
 4 3 0 0 0
SMALL
GASTEIGER

@<TRIPOS>ATOM
      1 C           5.6199    6.6812    5.1817 C.3     1  UNL1       -0.0681
      2 H           4.8822    6.7695    5.9772 H       1  UNL1        0.0227
      3 H           6.4829    7.2693    5.4816 H       1  UNL1        0.0227
      4 H           5.9190    5.6356    5.1347 H       1  UNL1        0.0227
@<TRIPOS>BOND
     1     4     1    1
     2     1     3    1
     3     1     2    1
