@<TRIPOS>MOLECULE
1
 4 3 0 0 0
SMALL
GASTEIGER

@<TRIPOS>ATOM
      1 C           6.2543    2.3641    4.1791 C.3     1  UNL1       -0.0681
      2 H           5.7120    1.4082    4.2413 H       1  UNL1        0.0227
      3 H           5.7208    3.0795    4.8201 H       1  UNL1        0.0227
      4 H           7.2384    2.2010    4.6493 H       1  UNL1        0.0227
@<TRIPOS>BOND
     1     1     2    1
     2     1     4    1
     3     1     3    1
