@<TRIPOS>MOLECULE
1
 4 3 0 0 0
SMALL
GASTEIGER

@<TRIPOS>ATOM
      1 C           7.6243    4.6426    2.5124 C.3     1  UNL1       -0.0681
      2 H           7.2961    5.2602    3.3588 H       1  UNL1        0.0227
      3 H           7.5750    5.2681    1.6095 H       1  UNL1        0.0227
      4 H           8.6835    4.3973    2.6840 H       1  UNL1        0.0227
@<TRIPOS>BOND
     1     3     1    1
     2     1     4    1
     3     1     2    1
