@<TRIPOS>MOLECULE
1
 4 3 0 0 0
SMALL
GASTEIGER

@<TRIPOS>ATOM
      1 C          -1.2947   14.8837    4.2049 C.3     1  UNL1       -0.0681
      2 H          -1.2776   15.1665    5.2668 H       1  UNL1        0.0227
      3 H          -2.3578   14.7873    3.9270 H       1  UNL1        0.0227
      4 H          -0.8984   15.7378    3.6359 H       1  UNL1        0.0227
@<TRIPOS>BOND
     1     4     1    1
     2     3     1    1
     3     1     2    1
