@<TRIPOS>MOLECULE
1
 4 3 0 0 0
SMALL
GASTEIGER

@<TRIPOS>ATOM
      1 C           2.5641    3.5917   17.8905 C.3     1  UNL1       -0.0681
      2 H           3.5086    3.0464   17.7536 H       1  UNL1        0.0227
      3 H           2.5226    3.9166   18.9413 H       1  UNL1        0.0227
      4 H           2.6155    4.4989   17.2742 H       1  UNL1        0.0227
@<TRIPOS>BOND
     1     4     1    1
     2     2     1    1
     3     1     3    1
