@<TRIPOS>MOLECULE
1
 4 3 0 0 0
SMALL
GASTEIGER

@<TRIPOS>ATOM
      1 C          -1.4553   11.8312    4.8557 C.3     1  UNL1       -0.0681
      2 H          -1.7566   12.2341    5.8324 H       1  UNL1        0.0227
      3 H          -0.8881   10.9068    5.0365 H       1  UNL1        0.0227
      4 H          -2.3783   11.5469    4.3286 H       1  UNL1        0.0227
@<TRIPOS>BOND
     1     4     1    1
     2     1     3    1
     3     1     2    1
