@<TRIPOS>MOLECULE
1
 4 3 0 0 0
SMALL
GASTEIGER

@<TRIPOS>ATOM
      1 C          -0.4747    3.7548   17.1640 C.3     1  UNL1       -0.0681
      2 H          -1.4559    3.2849   17.0025 H       1  UNL1        0.0227
      3 H          -0.3109    4.4542   16.3320 H       1  UNL1        0.0227
      4 H          -0.5678    4.3725   18.0729 H       1  UNL1        0.0227
@<TRIPOS>BOND
     1     3     1    1
     2     2     1    1
     3     1     4    1
