@<TRIPOS>MOLECULE
1
 4 3 0 0 0
SMALL
GASTEIGER

@<TRIPOS>ATOM
      1 C           3.8524    2.9531    2.4041 C.3     1  UNL1       -0.0681
      2 H           3.6536    3.3167    1.3893 H       1  UNL1        0.0227
      3 H           4.3905    2.0109    2.2905 H       1  UNL1        0.0227
      4 H           4.5688    3.6696    2.8265 H       1  UNL1        0.0227
@<TRIPOS>BOND
     1     2     1    1
     2     3     1    1
     3     1     4    1
