@<TRIPOS>MOLECULE
1
 4 3 0 0 0
SMALL
GASTEIGER

@<TRIPOS>ATOM
      1 C           2.6473    2.1818    5.1758 C.3     1  UNL1       -0.0681
      2 H           2.4374    3.0554    5.8026 H       1  UNL1        0.0227
      3 H           2.4610    1.2975    5.7952 H       1  UNL1        0.0227
      4 H           3.7146    2.1971    4.9245 H       1  UNL1        0.0227
@<TRIPOS>BOND
     1     4     1    1
     2     1     3    1
     3     1     2    1
