@<TRIPOS>MOLECULE
3
 58 59 0 0 0
SMALL
GASTEIGER

@<TRIPOS>ATOM
      1 SI          2.4054   20.2122    4.6440 Si      1  UNL1        0.0000
      2 N           3.8635   18.4455    2.9806 N.3     1  UNL1        0.0000
      3 C           2.9166   18.5075    3.8656 C.3     1  UNL1        0.0000
      4 C           0.9295   20.2904    5.9156 C.3     1  UNL1        0.0000
      5 C           0.6947   21.7535    6.3048 C.3     1  UNL1        0.0000
      6 H           0.4906   22.3626    5.4261 H       1  UNL1        0.0000
      7 H           1.5558   22.1647    6.8244 H       1  UNL1        0.0000
      8 H          -0.1645   21.8246    6.9713 H       1  UNL1        0.0000
      9 C          -0.3808   19.7526    5.3432 C.3     1  UNL1        0.0000
     10 H          -0.2815   18.6980    5.0756 H       1  UNL1        0.0000
     11 H          -0.6837   20.3144    4.4628 H       1  UNL1        0.0000
     12 H          -1.1730   19.8354    6.0873 H       1  UNL1        0.0000
     13 C           1.2715   19.5043    7.1802 C.3     1  UNL1        0.0000
     14 H           0.4898   19.6285    7.9295 H       1  UNL1        0.0000
     15 H           2.2140   19.8397    7.6078 H       1  UNL1        0.0000
     16 H           1.3577   18.4356    6.9521 H       1  UNL1        0.0000
     17 C           4.0882   17.2477    2.1414 C.3     1  UNL1        0.0000
     18 H           4.9762   17.4544    1.5427 H       1  UNL1        0.0000
     19 C           2.9102   17.0475    1.1898 C.3     1  UNL1        0.0000
     20 H           3.1392   16.2536    0.4838 H       1  UNL1        0.0000
     21 H           2.7017   17.9597    0.6358 H       1  UNL1        0.0000
     22 H           2.0186   16.7670    1.7456 H       1  UNL1        0.0000
     23 C           4.3656   15.9875    2.9537 C.3     1  UNL1        0.0000
     24 H           3.4812   15.7019    3.5439 H       1  UNL1        0.0000
     25 H           5.1989   16.1457    3.6341 H       1  UNL1        0.0000
     26 H           4.6093   15.1692    2.2808 H       1  UNL1        0.0000
     27 C           4.8245   19.5271    2.7281 C.3     1  UNL1        0.0000
     28 H           4.5325   20.3610    3.3665 H       1  UNL1        0.0000
     29 C           6.2294   19.0994    3.1544 C.3     1  UNL1        0.0000
     30 H           6.1940   18.6560    4.1460 H       1  UNL1        0.0000
     31 H           6.8742   19.9732    3.1933 H       1  UNL1        0.0000
     32 H           6.6696   18.3829    2.4652 H       1  UNL1        0.0000
     33 C           4.7842   20.0219    1.2833 C.3     1  UNL1        0.0000
     34 H           5.1773   19.2930    0.5792 H       1  UNL1        0.0000
     35 H           5.3898   20.9210    1.2055 H       1  UNL1        0.0000
     36 H           3.7659   20.2743    0.9987 H       1  UNL1        0.0000
     37 C           3.8083   21.2142    5.4656 C.ar    1  UNL1        0.0000
     38 C           4.8877   20.5760    6.0729 C.ar    1  UNL1        0.0000
     39 H           4.9313   19.4984    6.0735 H       1  UNL1        0.0000
     40 C           5.8919   21.2950    6.6960 C.ar    1  UNL1        0.0000
     41 H           6.7148   20.7719    7.1612 H       1  UNL1        0.0000
     42 C           5.8409   22.6776    6.7282 C.ar    1  UNL1        0.0000
     43 H           6.6245   23.2428    7.2116 H       1  UNL1        0.0000
     44 C           4.7686   23.3307    6.1450 C.ar    1  UNL1        0.0000
     45 H           4.7098   24.4096    6.1762 H       1  UNL1        0.0000
     46 C           3.7650   22.6064    5.5271 C.ar    1  UNL1        0.0000
     47 H           2.9295   23.1376    5.0979 H       1  UNL1        0.0000
     48 C           1.8275   20.9958    2.9933 C.ar    1  UNL1        0.0000
     49 C           2.3441   22.1780    2.4738 C.ar    1  UNL1        0.0000
     50 H           3.1073   22.7117    3.0181 H       1  UNL1        0.0000
     51 C           1.9155   22.6810    1.2573 C.ar    1  UNL1        0.0000
     52 H           2.3309   23.6052    0.8817 H       1  UNL1        0.0000
     53 C           0.9626   22.0003    0.5199 C.ar    1  UNL1        0.0000
     54 H           0.6253   22.3912   -0.4289 H       1  UNL1        0.0000
     55 C           0.4541   20.8071    1.0048 C.ar    1  UNL1        0.0000
     56 H          -0.2789   20.2575    0.4317 H       1  UNL1        0.0000
     57 C           0.8855   20.3150    2.2230 C.ar    1  UNL1        0.0000
     58 H           0.4899   19.3757    2.5798 H       1  UNL1        0.0000
@<TRIPOS>BOND
     1    54    53    1
     2    56    55    1
     3    20    19    1
     4    53    55   ar
     5    53    51   ar
     6    34    33    1
     7    21    19    1
     8    52    51    1
     9    36    33    1
    10    55    57   ar
    11    19    22    1
    12    19    17    1
    13    35    33    1
    14    51    49   ar
    15    33    27    1
    16    18    17    1
    17    17    23    1
    18    17     2    1
    19    57    58    1
    20    57    48   ar
    21    26    23    1
    22    32    29    1
    23    49    48   ar
    24    49    50    1
    25    27     2    1
    26    27    29    1
    27    27    28    1
    28    23    24    1
    29    23    25    1
    30     2     3    1
    31    48     1    1
    32    29    31    1
    33    29    30    1
    34     3     1    1
    35    11     9    1
    36     1    37    1
    37     1     4    1
    38    10     9    1
    39    47    46    1
    40     9     4    1
    41     9    12    1
    42     6     5    1
    43    37    46   ar
    44    37    38   ar
    45    46    44   ar
    46     4     5    1
    47     4    13    1
    48    38    39    1
    49    38    40   ar
    50    44    45    1
    51    44    42   ar
    52     5     7    1
    53     5     8    1
    54    40    42   ar
    55    40    41    1
    56    42    43    1
    57    16    13    1
    58    13    15    1
    59    13    14    1
