@<TRIPOS>MOLECULE
1
 7 6 0 0 0
SMALL
GASTEIGER

@<TRIPOS>ATOM
      1 C           4.1306    3.5913   12.7085 C.3     1  UNL1       -0.0562
      2 C           2.6137    3.6307   12.8831 C.3     1  UNL1       -0.0653
      3 H           4.5422    2.9984   13.5351 H       1  UNL1        0.0263
      4 H           4.5076    4.6094   12.8709 H       1  UNL1        0.0263
      5 H           2.3593    4.0037   13.8788 H       1  UNL1        0.0230
      6 H           2.1636    2.6427   12.7853 H       1  UNL1        0.0230
      7 H           2.1362    4.2925   12.1611 H       1  UNL1        0.0230
@<TRIPOS>BOND
     1     7     2    1
     2     1     4    1
     3     1     2    1
     4     1     3    1
     5     6     2    1
     6     2     5    1
