@<TRIPOS>MOLECULE
1
 11 11 0 0 0
SMALL
GASTEIGER

@<TRIPOS>ATOM
      1 C          15.3234   11.7518    9.8033 C.ar    1  UNL1       -0.0179
      2 C          14.1956   12.3981    9.2979 C.ar    1  UNL1       -0.0540
      3 C          13.9650   13.7464    9.5194 C.ar    1  UNL1       -0.0612
      4 C          14.8660   14.4901   10.2632 C.ar    1  UNL1       -0.0617
      5 C          15.9925   13.8734   10.7776 C.ar    1  UNL1       -0.0612
      6 C          16.2164   12.5232   10.5473 C.ar    1  UNL1       -0.0540
      7 H          13.4684   11.8281    8.7280 H       1  UNL1        0.0624
      8 H          13.0796   14.2166    9.1150 H       1  UNL1        0.0618
      9 H          14.6904   15.5410   10.4405 H       1  UNL1        0.0618
     10 H          16.7030   14.4427   11.3602 H       1  UNL1        0.0618
     11 H          17.1158   12.0708   10.9555 H       1  UNL1        0.0624
@<TRIPOS>BOND
     1     7     2    1
     2     8     3    1
     3     2     3   ar
     4     2     1   ar
     5     3     4   ar
     6     1     6   ar
     7     4     9    1
     8     4     5   ar
     9     6     5   ar
    10     6    11    1
    11     5    10    1
