@<TRIPOS>MOLECULE
1
 4 3 0 0 0
SMALL
GASTEIGER

@<TRIPOS>ATOM
      1 C          -1.6578    4.4307    5.6145 C.3     1  UNL1       -0.0681
      2 H          -1.5183    5.4986    5.3828 H       1  UNL1        0.0227
      3 H          -2.7203    4.2134    5.4076 H       1  UNL1        0.0227
      4 H          -1.5238    4.3317    6.7032 H       1  UNL1        0.0227
@<TRIPOS>BOND
     1     2     1    1
     2     3     1    1
     3     1     4    1
