@<TRIPOS>MOLECULE
1
 4 3 0 0 0
SMALL
GASTEIGER

@<TRIPOS>ATOM
      1 C           0.8623    4.4329    3.2538 C.3     1  UNL1       -0.0681
      2 H           0.7213    5.5004    3.4865 H       1  UNL1        0.0227
      3 H           1.9251    4.2170    3.4609 H       1  UNL1        0.0227
      4 H           0.7289    4.3349    2.1649 H       1  UNL1        0.0227
@<TRIPOS>BOND
     1     4     1    1
     2     1     3    1
     3     1     2    1
