@<TRIPOS>MOLECULE
1
 14 14 0 0 0
SMALL
GASTEIGER

@<TRIPOS>ATOM
      1 C          11.4666    0.2797    8.7744 C.3     1  UNL1       -0.0237
      2 C          10.7551   -0.9304    8.3938 C.ar    1  UNL1       -0.0470
      3 C          10.6087   -1.2940    7.0420 C.ar    1  UNL1       -0.0586
      4 C           9.9821   -2.4672    6.6765 C.ar    1  UNL1       -0.0615
      5 C           9.4624   -3.3208    7.6384 C.ar    1  UNL1       -0.0617
      6 C           9.5886   -2.9838    8.9774 C.ar    1  UNL1       -0.0615
      7 C          10.2283   -1.8188    9.3497 C.ar    1  UNL1       -0.0586
      8 H          11.0275   -0.6416    6.2812 H       1  UNL1        0.0620
      9 H           9.9095   -2.7390    5.6325 H       1  UNL1        0.0618
     10 H           8.9766   -4.2399    7.3487 H       1  UNL1        0.0618
     11 H           9.1977   -3.6466    9.7370 H       1  UNL1        0.0618
     12 H          10.3531   -1.5925   10.4022 H       1  UNL1        0.0620
     13 H          12.2431    0.5247    8.0382 H       1  UNL1        0.0316
     14 H          11.8960    0.2078    9.7822 H       1  UNL1        0.0316
@<TRIPOS>BOND
     1     9     4    1
     2     8     3    1
     3     4     3   ar
     4     4     5   ar
     5     3     2   ar
     6    10     5    1
     7     5     6   ar
     8    13     1    1
     9     2     1    1
    10     2     7   ar
    11     1    14    1
    12     6     7   ar
    13     6    11    1
    14     7    12    1
