@<TRIPOS>MOLECULE
1
 14 14 0 0 0
SMALL
GASTEIGER

@<TRIPOS>ATOM
      1 C           8.4953    1.2814   10.1132 C.3     1  UNL1       -0.0237
      2 C           8.8899    1.9052   11.3674 C.ar    1  UNL1       -0.0470
      3 C           8.2956    3.0965   11.8240 C.ar    1  UNL1       -0.0586
      4 C           8.6325    3.6494   13.0417 C.ar    1  UNL1       -0.0615
      5 C           9.5703    3.0361   13.8609 C.ar    1  UNL1       -0.0617
      6 C          10.1734    1.8622   13.4326 C.ar    1  UNL1       -0.0615
      7 C           9.8477    1.3109   12.2108 C.ar    1  UNL1       -0.0586
      8 H           7.5382    3.5713   11.2127 H       1  UNL1        0.0620
      9 H           8.1512    4.5612   13.3695 H       1  UNL1        0.0618
     10 H           9.8187    3.4609   14.8224 H       1  UNL1        0.0618
     11 H          10.8924    1.3681   14.0713 H       1  UNL1        0.0618
     12 H          10.3067    0.3779   11.9011 H       1  UNL1        0.0620
     13 H           7.4923    1.5996    9.8043 H       1  UNL1        0.0316
     14 H           8.5553    0.1881   10.1725 H       1  UNL1        0.0316
@<TRIPOS>BOND
     1    13     1    1
     2     1    14    1
     3     1     2    1
     4     8     3    1
     5     2     3   ar
     6     2     7   ar
     7     3     4   ar
     8    12     7    1
     9     7     6   ar
    10     4     9    1
    11     4     5   ar
    12     6     5   ar
    13     6    11    1
    14     5    10    1
