@<TRIPOS>MOLECULE
1
 4 3 0 0 0
SMALL
GASTEIGER

@<TRIPOS>ATOM
      1 C           3.3517   13.9985   25.5839 C.3     1  UNL1       -0.0681
      2 H           2.5714   13.4198   26.0988 H       1  UNL1        0.0227
      3 H           3.4428   14.9620   26.1078 H       1  UNL1        0.0227
      4 H           4.3017   13.4656   25.7222 H       1  UNL1        0.0227
@<TRIPOS>BOND
     1     1     4    1
     2     1     2    1
     3     1     3    1
