@<TRIPOS>MOLECULE
1
 4 3 0 0 0
SMALL
GASTEIGER

@<TRIPOS>ATOM
      1 C           6.9712    1.7639    3.0779 C.3     1  UNL1       -0.0681
      2 H           6.8632    1.0767    2.2269 H       1  UNL1        0.0227
      3 H           7.7483    1.3291    3.7288 H       1  UNL1        0.0227
      4 H           7.3837    2.7035    2.6821 H       1  UNL1        0.0227
@<TRIPOS>BOND
     1     2     1    1
     2     4     1    1
     3     1     3    1
