@<TRIPOS>MOLECULE
1
 4 3 0 0 0
SMALL
GASTEIGER

@<TRIPOS>ATOM
      1 C           5.8662    4.7547    4.2609 C.3     1  UNL1       -0.0681
      2 H           5.9020    5.6886    3.6796 H       1  UNL1        0.0227
      3 H           6.8961    4.5234    4.5629 H       1  UNL1        0.0227
      4 H           5.2926    4.9625    5.1755 H       1  UNL1        0.0227
@<TRIPOS>BOND
     1     2     1    1
     2     1     3    1
     3     1     4    1
