@<TRIPOS>MOLECULE
1
 4 3 0 0 0
SMALL
GASTEIGER

@<TRIPOS>ATOM
      1 C           4.9223    0.1923    4.8401 C.3     1  UNL1       -0.0681
      2 H           3.8792    0.1085    5.1757 H       1  UNL1        0.0227
      3 H           5.5655   -0.0498    5.6996 H       1  UNL1        0.0227
      4 H           5.0876   -0.5856    4.0829 H       1  UNL1        0.0227
@<TRIPOS>BOND
     1     4     1    1
     2     1     2    1
     3     1     3    1
