@<TRIPOS>MOLECULE
1
 4 3 0 0 0
SMALL
GASTEIGER

@<TRIPOS>ATOM
      1 C           4.6415   14.7192   22.8124 C.3     1  UNL1       -0.0681
      2 H           5.4024   13.9298   22.8865 H       1  UNL1        0.0227
      3 H           5.0632   15.6024   23.3209 H       1  UNL1        0.0227
      4 H           4.5498   14.9801   21.7468 H       1  UNL1        0.0227
@<TRIPOS>BOND
     1     4     1    1
     2     1     2    1
     3     1     3    1
