@<TRIPOS>MOLECULE
1
 4 3 0 0 0
SMALL
GASTEIGER

@<TRIPOS>ATOM
      1 C           6.5026    2.6648    2.0097 C.3     1  UNL1       -0.0681
      2 H           7.3781    2.2640    2.5394 H       1  UNL1        0.0227
      3 H           6.8646    3.5228    1.4191 H       1  UNL1        0.0227
      4 H           6.1817    1.8970    1.2893 H       1  UNL1        0.0227
@<TRIPOS>BOND
     1     4     1    1
     2     3     1    1
     3     1     2    1
