@<TRIPOS>MOLECULE
3
 28 27 0 0 0
SMALL
GASTEIGER

@<TRIPOS>ATOM
      1 SI          1.2885    1.1232    5.5610 Si      1  UNL1        0.0000
      2 SI          4.1311    2.0399    6.8331 Si      1  UNL1        0.0000
      3 C           2.8989    2.1042    5.4018 C.3     1  UNL1        0.0000
      4 C           0.6696    0.6966    3.7906 C.3     1  UNL1        0.0000
      5 C          -0.1063    2.1207    6.4247 C.3     1  UNL1        0.0000
      6 C           1.4186   -0.5182    6.5369 C.3     1  UNL1        0.0000
      7 C           3.4129    2.5100    8.5477 C.3     1  UNL1        0.0000
      8 C           4.9636    0.3254    6.9969 C.3     1  UNL1        0.0000
      9 C           5.5405    3.2784    6.4255 C.3     1  UNL1        0.0000
     10 H           2.5954    3.1560    5.2990 H       1  UNL1        0.0000
     11 H           0.5875    1.6016    3.1914 H       1  UNL1        0.0000
     12 H           1.3613    0.0214    3.2807 H       1  UNL1        0.0000
     13 H          -0.3070    0.2200    3.7963 H       1  UNL1        0.0000
     14 H          -0.3404    3.0313    5.8825 H       1  UNL1        0.0000
     15 H           0.1922    2.4081    7.4273 H       1  UNL1        0.0000
     16 H          -1.0238    1.5462    6.5073 H       1  UNL1        0.0000
     17 H           0.4753   -1.0555    6.5203 H       1  UNL1        0.0000
     18 H           2.1769   -1.1762    6.1293 H       1  UNL1        0.0000
     19 H           1.6679   -0.3287    7.5748 H       1  UNL1        0.0000
     20 H           4.1754    2.5143    9.3202 H       1  UNL1        0.0000
     21 H           2.6437    1.8070    8.8484 H       1  UNL1        0.0000
     22 H           2.9617    3.4964    8.5266 H       1  UNL1        0.0000
     23 H           5.7898    0.3516    7.7012 H       1  UNL1        0.0000
     24 H           4.2676   -0.4298    7.3422 H       1  UNL1        0.0000
     25 H           5.3544    0.0069    6.0338 H       1  UNL1        0.0000
     26 H           6.3483    3.2287    7.1493 H       1  UNL1        0.0000
     27 H           5.9602    3.0570    5.4426 H       1  UNL1        0.0000
     28 H           5.1818    4.3032    6.4154 H       1  UNL1        0.0000
@<TRIPOS>BOND
     1    11     4    1
     2    12     4    1
     3     4    13    1
     4     4     1    1
     5    10     3    1
     6     3     1    1
     7     3     2    1
     8    27     9    1
     9     1     5    1
    10     1     6    1
    11    14     5    1
    12    25     8    1
    13    18     6    1
    14    28     9    1
    15     5    16    1
    16     5    15    1
    17     9     2    1
    18     9    26    1
    19    17     6    1
    20     6    19    1
    21     2     8    1
    22     2     7    1
    23     8    24    1
    24     8    23    1
    25    22     7    1
    26     7    21    1
    27     7    20    1
