@<TRIPOS>MOLECULE
2
 16 15 0 0 0
SMALL
GASTEIGER

@<TRIPOS>ATOM
      1 SI          2.7548    3.8178   20.0603 Si      1  UNL1        0.0000
      2 C           4.2923    2.8627   19.5549 C.3     1  UNL1        0.0000
      3 H           4.2125    1.8573   20.0056 H       1  UNL1        0.0000
      4 H           5.1157    3.3378   20.1215 H       1  UNL1        0.0000
      5 C           1.1659    2.7250   19.9349 C.3     1  UNL1        0.0000
      6 H           0.4190    3.1613   19.2785 H       1  UNL1        0.0000
      7 H           0.7060    2.6113   20.9113 H       1  UNL1        0.0000
      8 H           1.3829    1.7236   19.5708 H       1  UNL1        0.0000
      9 C           2.5266    5.3622   18.9431 C.3     1  UNL1        0.0000
     10 H           3.2705    6.1143   19.1888 H       1  UNL1        0.0000
     11 H           1.5488    5.8184   19.0702 H       1  UNL1        0.0000
     12 H           2.6513    5.1178   17.8913 H       1  UNL1        0.0000
     13 C           2.7483    4.4922   21.8597 C.3     1  UNL1        0.0000
     14 H           2.8171    3.6858   22.5846 H       1  UNL1        0.0000
     15 H           1.8495    5.0598   22.0853 H       1  UNL1        0.0000
     16 H           3.5984    5.1480   22.0248 H       1  UNL1        0.0000
@<TRIPOS>BOND
     1    12     9    1
     2     9    11    1
     3     9    10    1
     4     9     1    1
     5     6     5    1
     6     2     3    1
     7     2     1    1
     8     2     4    1
     9     8     5    1
    10     5     1    1
    11     5     7    1
    12     1    13    1
    13    13    16    1
    14    13    15    1
    15    13    14    1
