@<TRIPOS>MOLECULE
2
 16 15 0 0 0
SMALL
GASTEIGER

@<TRIPOS>ATOM
      1 SI          7.2743    5.9135   17.6656 Si      1  UNL1        0.0000
      2 C           5.9376    4.9472   16.7585 C.3     1  UNL1        0.0000
      3 H           6.1856    4.9889   15.6872 H       1  UNL1        0.0000
      4 H           5.0077    5.5326   16.8648 H       1  UNL1        0.0000
      5 C           6.9862    5.8309   19.5548 C.3     1  UNL1        0.0000
      6 H           5.9572    6.0713   19.8042 H       1  UNL1        0.0000
      7 H           7.6262    6.5217   20.0949 H       1  UNL1        0.0000
      8 H           7.1887    4.8310   19.9273 H       1  UNL1        0.0000
      9 C           7.3776    7.7798   17.2022 C.3     1  UNL1        0.0000
     10 H           7.5750    7.9135   16.1424 H       1  UNL1        0.0000
     11 H           8.1658    8.2918   17.7466 H       1  UNL1        0.0000
     12 H           6.4445    8.2889   17.4257 H       1  UNL1        0.0000
     13 C           9.0143    5.1907   17.3093 C.3     1  UNL1        0.0000
     14 H           9.0737    4.1524   17.6225 H       1  UNL1        0.0000
     15 H           9.7835    5.7386   17.8446 H       1  UNL1        0.0000
     16 H           9.2591    5.2356   16.2527 H       1  UNL1        0.0000
@<TRIPOS>BOND
     1     3     2    1
     2    10     9    1
     3    16    13    1
     4     2     4    1
     5     2     1    1
     6     9    12    1
     7     9     1    1
     8     9    11    1
     9    13    14    1
    10    13     1    1
    11    13    15    1
    12     1     5    1
    13     5     6    1
    14     5     8    1
    15     5     7    1
