@<TRIPOS>MOLECULE
2
 16 15 0 0 0
SMALL
GASTEIGER

@<TRIPOS>ATOM
      1 SI          7.7279    0.5000   19.0891 Si      1  UNL1        0.0000
      2 C           7.2120    1.4167   17.5285 C.3     1  UNL1        0.0000
      3 H           7.1120    0.6564   16.7350 H       1  UNL1        0.0000
      4 H           8.0962    2.0091   17.2389 H       1  UNL1        0.0000
      5 C           6.3752   -0.7264   19.6848 C.3     1  UNL1        0.0000
      6 H           5.4518   -0.2074   19.9228 H       1  UNL1        0.0000
      7 H           6.6928   -1.2555   20.5778 H       1  UNL1        0.0000
      8 H           6.1545   -1.4735   18.9280 H       1  UNL1        0.0000
      9 C           9.3160   -0.5725   18.8962 C.3     1  UNL1        0.0000
     10 H           9.1924   -1.3278   18.1249 H       1  UNL1        0.0000
     11 H           9.5763   -1.0877   19.8163 H       1  UNL1        0.0000
     12 H          10.1672    0.0407   18.6151 H       1  UNL1        0.0000
     13 C           8.0811    1.7229   20.5169 C.3     1  UNL1        0.0000
     14 H           8.7989    2.4785   20.2134 H       1  UNL1        0.0000
     15 H           8.4857    1.2178   21.3886 H       1  UNL1        0.0000
     16 H           7.1754    2.2366   20.8238 H       1  UNL1        0.0000
@<TRIPOS>BOND
     1     3     2    1
     2     4     2    1
     3     2     1    1
     4    10     9    1
     5    12     9    1
     6     9     1    1
     7     9    11    1
     8     8     5    1
     9     1     5    1
    10     1    13    1
    11     5     6    1
    12     5     7    1
    13    14    13    1
    14    13    16    1
    15    13    15    1
