@<TRIPOS>MOLECULE
2
 16 15 0 0 0
SMALL
GASTEIGER

@<TRIPOS>ATOM
      1 SI          3.8709    6.6831    9.2608 Si      1  UNL1        0.0000
      2 C           3.2602    5.3258   10.4164 C.3     1  UNL1        0.0000
      3 H           3.0970    4.4153    9.8279 H       1  UNL1        0.0000
      4 H           2.2695    5.6266   10.7821 H       1  UNL1        0.0000
      5 C           2.9073    6.7954    7.6015 C.3     1  UNL1        0.0000
      6 H           2.9938    5.8765    7.0289 H       1  UNL1        0.0000
      7 H           3.2775    7.6033    6.9777 H       1  UNL1        0.0000
      8 H           1.8501    6.9733    7.7726 H       1  UNL1        0.0000
      9 C           3.6903    8.3801   10.1235 C.3     1  UNL1        0.0000
     10 H           2.6709    8.7447   10.0435 H       1  UNL1        0.0000
     11 H           4.3378    9.1298    9.6799 H       1  UNL1        0.0000
     12 H           3.9325    8.3138   11.1802 H       1  UNL1        0.0000
     13 C           5.7018    6.3814    8.7680 C.3     1  UNL1        0.0000
     14 H           6.3085    6.0995    9.6256 H       1  UNL1        0.0000
     15 H           6.1397    7.2751    8.3344 H       1  UNL1        0.0000
     16 H           5.7839    5.5949    8.0230 H       1  UNL1        0.0000
@<TRIPOS>BOND
     1     7     5    1
     2     6     5    1
     3     5     8    1
     4     5     1    1
     5    16    13    1
     6    15    13    1
     7    13     1    1
     8    13    14    1
     9     1     9    1
    10     1     2    1
    11    11     9    1
    12     3     2    1
    13    10     9    1
    14     9    12    1
    15     2     4    1
