@<TRIPOS>MOLECULE
2
 16 15 0 0 0
SMALL
GASTEIGER

@<TRIPOS>ATOM
      1 SI          7.9032    6.3208   12.5240 Si      1  UNL1        0.0000
      2 C           6.9954    4.6929   12.1932 C.3     1  UNL1        0.0000
      3 H           7.3789    3.9215   12.8726 H       1  UNL1        0.0000
      4 H           7.2760    4.3465   11.1905 H       1  UNL1        0.0000
      5 C           9.3559    6.6101   11.3060 C.3     1  UNL1        0.0000
      6 H          10.1164    5.8419   11.4047 H       1  UNL1        0.0000
      7 H           9.8342    7.5694   11.4767 H       1  UNL1        0.0000
      8 H           9.0097    6.5968   10.2772 H       1  UNL1        0.0000
      9 C           8.6336    6.4215   14.2917 C.3     1  UNL1        0.0000
     10 H           7.8505    6.4707   15.0412 H       1  UNL1        0.0000
     11 H           9.2460    7.3106   14.4048 H       1  UNL1        0.0000
     12 H           9.2613    5.5645   14.5150 H       1  UNL1        0.0000
     13 C           6.6993    7.7976   12.3379 C.3     1  UNL1        0.0000
     14 H           6.3857    7.9282   11.3065 H       1  UNL1        0.0000
     15 H           7.1661    8.7265   12.6529 H       1  UNL1        0.0000
     16 H           5.8063    7.6613   12.9518 H       1  UNL1        0.0000
@<TRIPOS>BOND
     1     8     5    1
     2     4     2    1
     3     5     6    1
     4     5     7    1
     5     5     1    1
     6    14    13    1
     7     2     1    1
     8     2     3    1
     9    13     1    1
    10    13    15    1
    11    13    16    1
    12     1     9    1
    13     9    11    1
    14     9    12    1
    15     9    10    1
