@<TRIPOS>MOLECULE
2
 16 15 0 0 0
SMALL
GASTEIGER

@<TRIPOS>ATOM
      1 SI          6.0355    6.1235    6.7310 Si      1  UNL1        0.0000
      2 C           6.9154    5.0635    5.4328 C.3     1  UNL1        0.0000
      3 H           7.2809    4.1639    5.9598 H       1  UNL1        0.0000
      4 H           7.8350    5.5931    5.1320 H       1  UNL1        0.0000
      5 C           4.3274    5.3240    7.0705 C.3     1  UNL1        0.0000
      6 H           3.8817    4.9588    6.1436 H       1  UNL1        0.0000
      7 H           3.6323    6.0212    7.5267 H       1  UNL1        0.0000
      8 H           4.4228    4.4748    7.7394 H       1  UNL1        0.0000
      9 C           5.7930    7.9282    6.1230 C.3     1  UNL1        0.0000
     10 H           6.7192    8.3505    5.7435 H       1  UNL1        0.0000
     11 H           5.4555    8.5662    6.9340 H       1  UNL1        0.0000
     12 H           5.0529    7.9880    5.3320 H       1  UNL1        0.0000
     13 C           6.9574    6.2429    8.4107 C.3     1  UNL1        0.0000
     14 H           7.1497    5.2557    8.8201 H       1  UNL1        0.0000
     15 H           6.3796    6.7944    9.1464 H       1  UNL1        0.0000
     16 H           7.9151    6.7439    8.3051 H       1  UNL1        0.0000
@<TRIPOS>BOND
     1     4     2    1
     2    12     9    1
     3     2     3    1
     4     2     1    1
     5    10     9    1
     6     9     1    1
     7     9    11    1
     8     6     5    1
     9     1     5    1
    10     1    13    1
    11     5     7    1
    12     5     8    1
    13    16    13    1
    14    13    14    1
    15    13    15    1
