@<TRIPOS>MOLECULE
2
 16 15 0 0 0
SMALL
GASTEIGER

@<TRIPOS>ATOM
      1 SI          3.6734    1.1037    4.1171 Si      1  UNL1        0.0000
      2 C           5.3240    2.0217    4.2342 C.3     1  UNL1        0.0000
      3 H           6.0889    1.4083    3.7235 H       1  UNL1        0.0000
      4 H           5.6066    1.9792    5.3003 H       1  UNL1        0.0000
      5 C           3.7824   -0.7202    4.7090 C.3     1  UNL1        0.0000
      6 H           4.4566   -1.2985    4.0841 H       1  UNL1        0.0000
      7 H           2.8138   -1.2105    4.6855 H       1  UNL1        0.0000
      8 H           4.1535   -0.7787    5.7278 H       1  UNL1        0.0000
      9 C           2.3901    1.9768    5.2404 C.3     1  UNL1        0.0000
     10 H           2.6332    1.8335    6.2884 H       1  UNL1        0.0000
     11 H           1.3883    1.5899    5.0820 H       1  UNL1        0.0000
     12 H           2.3657    3.0478    5.0580 H       1  UNL1        0.0000
     13 C           2.9796    1.0268    2.3276 C.3     1  UNL1        0.0000
     14 H           2.7511    2.0139    1.9379 H       1  UNL1        0.0000
     15 H           2.0611    0.4477    2.3007 H       1  UNL1        0.0000
     16 H           3.6796    0.5516    1.6467 H       1  UNL1        0.0000
@<TRIPOS>BOND
     1    16    13    1
     2    14    13    1
     3    15    13    1
     4    13     1    1
     5     3     2    1
     6     6     5    1
     7     1     2    1
     8     1     5    1
     9     1     9    1
    10     2     4    1
    11     7     5    1
    12     5     8    1
    13    12     9    1
    14    11     9    1
    15     9    10    1
