@<TRIPOS>MOLECULE
21
 48 51 0 0 0
SMALL
GASTEIGER

@<TRIPOS>ATOM
      1 B           3.8753    0.9531   10.0629 B       1  UNL1        0.0000
      2 F           3.3478   -2.0401    9.6969 F       1  UNL1        0.0000
      3 F           1.6512   -3.4816   11.1421 F       1  UNL1        0.0000
      4 F           0.1172   -2.3125   13.0821 F       1  UNL1        0.0000
      5 F           0.3376    0.3890   13.5083 F       1  UNL1        0.0000
      6 F           2.0567    1.8457   12.0737 F       1  UNL1        0.0000
      7 F           4.6151    1.6248    7.2484 F       1  UNL1        0.0000
      8 F           6.5359    0.4520    5.8271 F       1  UNL1        0.0000
      9 F           8.0067   -1.6013    6.8908 F       1  UNL1        0.0000
     10 F           7.5008   -2.4125    9.4562 F       1  UNL1        0.0000
     11 F           5.5735   -1.2302   10.8923 F       1  UNL1        0.0000
     12 F           3.5523    4.0870    9.9733 F       1  UNL1        0.0000
     13 F           1.5142    5.2813    8.7658 F       1  UNL1        0.0000
     14 F          -0.2358    3.9143    7.1974 F       1  UNL1        0.0000
     15 F           0.0791    1.1972    6.9040 F       1  UNL1        0.0000
     16 F           2.0341   -0.0678    8.1916 F       1  UNL1        0.0000
     17 C           4.7924    1.7606   11.2033 C.3     1  UNL1        0.0000
     18 H           4.2442    2.6357   11.5295 H       1  UNL1        0.0000
     19 H           4.9066    1.1080   12.0688 H       1  UNL1        0.0000
     20 C           6.1439    2.0969   10.6759 C.ar    1  UNL1        0.0000
     21 C           6.3150    2.9639    9.5802 C.ar    1  UNL1        0.0000
     22 H           5.4393    3.3831    9.0902 H       1  UNL1        0.0000
     23 C           7.5125    2.9456    8.8604 C.ar    1  UNL1        0.0000
     24 H           7.5706    3.4611    7.9105 H       1  UNL1        0.0000
     25 C           8.5836    2.1794    9.2813 C.ar    1  UNL1        0.0000
     26 H           9.4972    2.1546    8.7065 H       1  UNL1        0.0000
     27 C           8.4539    1.3995   10.4201 C.ar    1  UNL1        0.0000
     28 H           9.2761    0.7810   10.7477 H       1  UNL1        0.0000
     29 C           7.2504    1.3538   11.0967 C.ar    1  UNL1        0.0000
     30 H           7.1378    0.6731   11.9285 H       1  UNL1        0.0000
     31 C           2.8441   -0.0367   10.8692 C.ar    1  UNL1        0.0000
     32 C           2.6654   -1.4002   10.6543 C.ar    1  UNL1        0.0000
     33 C           1.7669   -2.1717   11.3875 C.ar    1  UNL1        0.0000
     34 C           0.9823   -1.5833   12.3697 C.ar    1  UNL1        0.0000
     35 C           1.1012   -0.2169   12.5875 C.ar    1  UNL1        0.0000
     36 C           2.0123    0.5160   11.8395 C.ar    1  UNL1        0.0000
     37 C           4.9378    0.1788    9.1058 C.ar    1  UNL1        0.0000
     38 C           5.2562    0.5771    7.8148 C.ar    1  UNL1        0.0000
     39 C           6.2645   -0.0080    7.0580 C.ar    1  UNL1        0.0000
     40 C           7.0167   -1.0413    7.5959 C.ar    1  UNL1        0.0000
     41 C           6.7513   -1.4545    8.8956 C.ar    1  UNL1        0.0000
     42 C           5.7404   -0.8382    9.6188 C.ar    1  UNL1        0.0000
     43 C           2.8523    1.9071    9.1998 C.ar    1  UNL1        0.0000
     44 C           2.6794    3.2828    9.2689 C.ar    1  UNL1        0.0000
     45 C           1.6490    3.9548    8.6197 C.ar    1  UNL1        0.0000
     46 C           0.7514    3.2655    7.8206 C.ar    1  UNL1        0.0000
     47 C           0.9130    1.8931    7.6805 C.ar    1  UNL1        0.0000
     48 C           1.9372    1.2549    8.3670 C.ar    1  UNL1        0.0000
@<TRIPOS>BOND
     1     8    39    1
     2     9    40    1
     3    15    47    1
     4    39    40   ar
     5    39    38   ar
     6    14    46    1
     7     7    38    1
     8    40    41   ar
     9    47    46   ar
    10    47    48   ar
    11    38    37   ar
    12    46    45   ar
    13    24    23    1
    14    16    48    1
    15    48    43   ar
    16    45    13    1
    17    45    44   ar
    18    26    25    1
    19    23    25   ar
    20    23    21   ar
    21    41    10    1
    22    41    42   ar
    23    22    21    1
    24    37    42   ar
    25    37     1    1
    26    43    44   ar
    27    43     1    1
    28    44    12    1
    29    25    27   ar
    30    21    20   ar
    31    42    11    1
    32     2    32    1
    33     1    31    1
    34     1    17    1
    35    27    28    1
    36    27    29   ar
    37    32    31   ar
    38    32    33   ar
    39    20    29   ar
    40    20    17    1
    41    31    36   ar
    42    29    30    1
    43     3    33    1
    44    17    18    1
    45    17    19    1
    46    33    34   ar
    47    36     6    1
    48    36    35   ar
    49    34    35   ar
    50    34     4    1
    51    35     5    1
