@<TRIPOS>MOLECULE
2
 16 15 0 0 0
SMALL
GASTEIGER

@<TRIPOS>ATOM
      1 SI          0.2283    0.7417    8.9253 Si      1  UNL1        0.0000
      2 C          -0.0975   -0.6348    7.6532 C.3     1  UNL1        0.0000
      3 C           2.0830    1.0281    9.3003 C.3     1  UNL1        0.0000
      4 C          -0.6114    0.2164   10.5686 C.3     1  UNL1        0.0000
      5 C          -0.5418    2.4055    8.3893 C.3     1  UNL1        0.0000
      6 H          -0.0769   -1.6023    8.1718 H       1  UNL1        0.0000
      7 H          -1.1134   -0.5226    7.2613 H       1  UNL1        0.0000
      8 H           2.4615    0.3561   10.0651 H       1  UNL1        0.0000
      9 H           2.2559    2.0426    9.6466 H       1  UNL1        0.0000
     10 H           2.6725    0.8834    8.3979 H       1  UNL1        0.0000
     11 H          -1.6809    0.0854   10.4412 H       1  UNL1        0.0000
     12 H          -0.4644    0.9739   11.3311 H       1  UNL1        0.0000
     13 H          -0.2122   -0.7166   10.9557 H       1  UNL1        0.0000
     14 H          -1.5845    2.2944    8.1063 H       1  UNL1        0.0000
     15 H          -0.0094    2.8227    7.5417 H       1  UNL1        0.0000
     16 H          -0.4988    3.1285    9.1989 H       1  UNL1        0.0000
@<TRIPOS>BOND
     1     7     2    1
     2    15     5    1
     3     2     6    1
     4     2     1    1
     5    14     5    1
     6     5     1    1
     7     5    16    1
     8    10     3    1
     9     1     3    1
    10     1     4    1
    11     3     9    1
    12     3     8    1
    13    11     4    1
    14     4    13    1
    15     4    12    1
