@<TRIPOS>MOLECULE
2
 16 15 0 0 0
SMALL
GASTEIGER

@<TRIPOS>ATOM
      1 SI          1.0435    2.1152    4.0404 Si      1  UNL1        0.0000
      2 C           0.0885    0.7776    5.0053 C.3     1  UNL1        0.0000
      3 C          -0.1720    3.1040    2.9383 C.3     1  UNL1        0.0000
      4 C           1.8799    3.3206    5.2632 C.3     1  UNL1        0.0000
      5 C           2.3862    1.3441    2.9137 C.3     1  UNL1        0.0000
      6 H          -0.5451    1.2799    5.7393 H       1  UNL1        0.0000
      7 H          -0.5874    0.2521    4.3264 H       1  UNL1        0.0000
      8 H           0.3458    3.8968    2.4094 H       1  UNL1        0.0000
      9 H          -0.9547    3.5640    3.5318 H       1  UNL1        0.0000
     10 H          -0.6535    2.4765    2.1957 H       1  UNL1        0.0000
     11 H           1.1649    3.9940    5.7258 H       1  UNL1        0.0000
     12 H           2.6366    3.9286    4.7771 H       1  UNL1        0.0000
     13 H           2.3636    2.7493    6.0503 H       1  UNL1        0.0000
     14 H           1.9634    0.7434    2.1140 H       1  UNL1        0.0000
     15 H           3.0241    0.7040    3.5171 H       1  UNL1        0.0000
     16 H           3.0122    2.1054    2.4580 H       1  UNL1        0.0000
@<TRIPOS>BOND
     1    14     5    1
     2    10     3    1
     3     8     3    1
     4    16     5    1
     5     5    15    1
     6     5     1    1
     7     3     9    1
     8     3     1    1
     9     1     2    1
    10     1     4    1
    11     7     2    1
    12    12     4    1
    13     2     6    1
    14     4    11    1
    15     4    13    1
