@<TRIPOS>MOLECULE
2
 16 15 0 0 0
SMALL
GASTEIGER

@<TRIPOS>ATOM
      1 SI          3.2419   -1.4629   -1.7425 Si      1  UNL1        0.0000
      2 C           3.5964   -1.6165    0.1156 C.3     1  UNL1        0.0000
      3 C           1.4794   -2.1120   -2.1322 C.3     1  UNL1        0.0000
      4 C           4.4718   -2.5308   -2.7538 C.3     1  UNL1        0.0000
      5 C           3.3651    0.3174   -2.4603 C.3     1  UNL1        0.0000
      6 H           4.4982   -2.2301    0.2515 H       1  UNL1        0.0000
      7 H           2.7780   -2.1854    0.5753 H       1  UNL1        0.0000
      8 H           0.7075   -1.5435   -1.6220 H       1  UNL1        0.0000
      9 H           1.3725   -3.1484   -1.8273 H       1  UNL1        0.0000
     10 H           1.2697   -2.0635   -3.1962 H       1  UNL1        0.0000
     11 H           5.5039   -2.2601   -2.5503 H       1  UNL1        0.0000
     12 H           4.3086   -2.4138   -3.8206 H       1  UNL1        0.0000
     13 H           4.3608   -3.5847   -2.5195 H       1  UNL1        0.0000
     14 H           2.9745    1.0697   -1.7801 H       1  UNL1        0.0000
     15 H           2.8009    0.3901   -3.3855 H       1  UNL1        0.0000
     16 H           4.3923    0.5819   -2.6923 H       1  UNL1        0.0000
@<TRIPOS>BOND
     1    12     4    1
     2    15     5    1
     3    10     3    1
     4     4    11    1
     5     4    13    1
     6     4     1    1
     7    16     5    1
     8     5    14    1
     9     5     1    1
    10     3     9    1
    11     3     1    1
    12     3     8    1
    13     1     2    1
    14     2     6    1
    15     2     7    1
