@<TRIPOS>MOLECULE
2
 16 15 0 0 0
SMALL
GASTEIGER

@<TRIPOS>ATOM
      1 SI          2.8013    4.9884    2.4508 Si      1  UNL1        0.0000
      2 C           3.6976    6.3666    3.4099 C.3     1  UNL1        0.0000
      3 C           3.7088    4.6547    0.7946 C.3     1  UNL1        0.0000
      4 C           2.8011    3.3420    3.4324 C.3     1  UNL1        0.0000
      5 C           0.9680    5.4089    2.0642 C.3     1  UNL1        0.0000
      6 H           4.7376    6.3467    3.0656 H       1  UNL1        0.0000
      7 H           3.7450    6.0423    4.4534 H       1  UNL1        0.0000
      8 H           4.7025    4.2549    0.9706 H       1  UNL1        0.0000
      9 H           3.8219    5.5577    0.2034 H       1  UNL1        0.0000
     10 H           3.1702    3.9316    0.1903 H       1  UNL1        0.0000
     11 H           3.8115    2.9958    3.6258 H       1  UNL1        0.0000
     12 H           2.2853    2.5578    2.8872 H       1  UNL1        0.0000
     13 H           2.3058    3.4552    4.3917 H       1  UNL1        0.0000
     14 H           0.3113    5.0580    2.8539 H       1  UNL1        0.0000
     15 H           0.6471    4.9232    1.1475 H       1  UNL1        0.0000
     16 H           0.8055    6.4774    1.9499 H       1  UNL1        0.0000
@<TRIPOS>BOND
     1    10     3    1
     2     9     3    1
     3     3     8    1
     4     3     1    1
     5    15     5    1
     6    16     5    1
     7     5     1    1
     8     5    14    1
     9     1     2    1
    10     1     4    1
    11    12     4    1
    12     6     2    1
    13     2     7    1
    14     4    11    1
    15     4    13    1
