@<TRIPOS>MOLECULE
5
 25 25 0 0 0
SMALL
GASTEIGER

@<TRIPOS>ATOM
      1 C           4.6909    9.2733    5.6097 C.2     1  UNL1       -0.0584
      2 C           5.5853    8.2592    5.8221 C.2     1  UNL1       -0.0477
      3 C           6.3732    8.0758    4.6257 C.2     1  UNL1       -0.0477
      4 C           5.9541    8.9683    3.6786 C.2     1  UNL1       -0.0584
      5 C           4.8278    9.7273    4.2246 C.3     1  UNL1        0.0231
      6 C           3.7606    9.9063    6.6006 C.3     1  UNL1       -0.0424
      7 C           5.7782    7.4358    7.0517 C.3     1  UNL1       -0.0395
      8 C           7.4460    7.0466    4.4970 C.3     1  UNL1       -0.0395
      9 C           6.5344    9.1707    2.3100 C.3     1  UNL1       -0.0424
     10 C           4.6516   11.1866    3.8787 C.3     1  UNL1       -0.0510
     11 H           3.5054    9.2136    7.4002 H       1  UNL1        0.0275
     12 H           2.8357   10.2351    6.1268 H       1  UNL1        0.0275
     13 H           4.2330   10.7796    7.0564 H       1  UNL1        0.0275
     14 H           5.0358    7.6755    7.8083 H       1  UNL1        0.0278
     15 H           6.7675    7.6103    7.4760 H       1  UNL1        0.0278
     16 H           5.7031    6.3746    6.8131 H       1  UNL1        0.0278
     17 H           7.0241    6.0439    4.5805 H       1  UNL1        0.0278
     18 H           8.1835    7.1623    5.2910 H       1  UNL1        0.0278
     19 H           7.9525    7.1306    3.5392 H       1  UNL1        0.0278
     20 H           6.6409    8.2221    1.7817 H       1  UNL1        0.0275
     21 H           7.5251    9.6237    2.3803 H       1  UNL1        0.0275
     22 H           5.9071    9.8282    1.7102 H       1  UNL1        0.0275
     23 H           3.7389   11.5830    4.3214 H       1  UNL1        0.0242
     24 H           4.6103   11.3429    2.7999 H       1  UNL1        0.0242
     25 H           5.4927   11.7639    4.2693 H       1  UNL1        0.0242
@<TRIPOS>BOND
     1    22     9    1
     2    20     9    1
     3     9    21    1
     4     9     4    1
     5    24    10    1
     6    19     8    1
     7     4     5    1
     8     4     3    2
     9    10     5    1
    10    10    25    1
    11    10    23    1
    12     5     1    1
    13     8    17    1
    14     8     3    1
    15     8    18    1
    16     3     2    1
    17     1     2    2
    18     1     6    1
    19     2     7    1
    20    12     6    1
    21     6    13    1
    22     6    11    1
    23    16     7    1
    24     7    15    1
    25     7    14    1
