@<TRIPOS>MOLECULE
2
 16 15 0 0 0
SMALL
GASTEIGER

@<TRIPOS>ATOM
      1 SI          1.6029    9.7486    0.2673 Si      1  UNL1        0.0000
      2 C           2.8503    8.5269    1.0099 C.3     1  UNL1        0.0000
      3 C           1.5612    9.5908   -1.6393 C.3     1  UNL1        0.0000
      4 C           2.1409   11.5347    0.6952 C.3     1  UNL1        0.0000
      5 C          -0.1486    9.3583    0.9292 C.3     1  UNL1        0.0000
      6 H           3.8529    8.7737    0.6469 H       1  UNL1        0.0000
      7 H           2.6247    7.5290    0.6343 H       1  UNL1        0.0000
      8 H           2.5300    9.8033   -2.0791 H       1  UNL1        0.0000
      9 H           0.8464   10.2823   -2.0727 H       1  UNL1        0.0000
     10 H           1.2753    8.5900   -1.9446 H       1  UNL1        0.0000
     11 H           3.0871   11.7882    0.2250 H       1  UNL1        0.0000
     12 H           2.2574   11.6514    1.7677 H       1  UNL1        0.0000
     13 H           1.4091   12.2634    0.3597 H       1  UNL1        0.0000
     14 H          -0.1639    9.3077    2.0144 H       1  UNL1        0.0000
     15 H          -0.5068    8.4059    0.5501 H       1  UNL1        0.0000
     16 H          -0.8643   10.1162    0.6250 H       1  UNL1        0.0000
@<TRIPOS>BOND
     1     8     3    1
     2     9     3    1
     3    10     3    1
     4     3     1    1
     5    11     4    1
     6     1     4    1
     7     1     5    1
     8     1     2    1
     9    13     4    1
    10    15     5    1
    11    16     5    1
    12     7     2    1
    13     6     2    1
    14     4    12    1
    15     5    14    1
