@<TRIPOS>MOLECULE
3
 65 67 0 0 0
SMALL
GASTEIGER

@<TRIPOS>ATOM
      1 N          -0.1344    9.2176   13.7695 N.pl3   1  UNL1       -0.2762
      2 N          -0.1979    9.4628   15.9028 N.pl3   1  UNL1       -0.2762
      3 C           0.6216    9.6233   14.8280 C.3     1  UNL1        0.1959
      4 C          -1.3784    8.8106   14.1819 C.2     1  UNL1        0.0131
      5 H          -2.1099    8.4357   13.4964 H       1  UNL1        0.0797
      6 C          -1.4205    8.9706   15.5193 C.2     1  UNL1        0.0131
      7 H          -2.2033    8.7833   16.2257 H       1  UNL1        0.0797
      8 C           0.0679    9.7087   17.2813 C.ar    1  UNL1        0.0424
      9 C          -0.3127   10.9353   17.8312 C.ar    1  UNL1       -0.0231
     10 C          -0.1717   11.1116   19.2010 C.ar    1  UNL1       -0.0565
     11 H          -0.4625   12.0457   19.6548 H       1  UNL1        0.0621
     12 C           0.3351   10.0999   19.9931 C.ar    1  UNL1       -0.0611
     13 H           0.4348   10.2505   21.0579 H       1  UNL1        0.0618
     14 C           0.7235    8.8990   19.4292 C.ar    1  UNL1       -0.0565
     15 H           1.1294    8.1274   20.0620 H       1  UNL1        0.0621
     16 C           0.5998    8.6784   18.0643 C.ar    1  UNL1       -0.0231
     17 C           1.0205    7.3728   17.4303 C.3     1  UNL1       -0.0197
     18 H           1.3775    7.6020   16.4176 H       1  UNL1        0.0344
     19 C           2.1620    6.6916   18.1844 C.3     1  UNL1       -0.0586
     20 H           2.9653    7.3940   18.3856 H       1  UNL1        0.0235
     21 H           2.5625    5.8833   17.5785 H       1  UNL1        0.0235
     22 H           1.8142    6.2646   19.1222 H       1  UNL1        0.0235
     23 C          -0.1699    6.4097   17.3428 C.3     1  UNL1       -0.0586
     24 H          -0.5890    6.2399   18.3327 H       1  UNL1        0.0235
     25 H           0.1596    5.4554   16.9395 H       1  UNL1        0.0235
     26 H          -0.9527    6.7986   16.6975 H       1  UNL1        0.0235
     27 C          -0.8681   12.0389   16.9596 C.3     1  UNL1       -0.0197
     28 H          -0.5593   11.8438   15.9265 H       1  UNL1        0.0344
     29 C          -0.3228   13.4115   17.3574 C.3     1  UNL1       -0.0586
     30 H          -0.7768   13.7651   18.2797 H       1  UNL1        0.0235
     31 H          -0.5412   14.1390   16.5779 H       1  UNL1        0.0235
     32 H           0.7539   13.3649   17.4990 H       1  UNL1        0.0235
     33 C          -2.3986   12.0452   17.0181 C.3     1  UNL1       -0.0586
     34 H          -2.8086   11.1121   16.6391 H       1  UNL1        0.0235
     35 H          -2.7934   12.8621   16.4173 H       1  UNL1        0.0235
     36 H          -2.7352   12.1774   18.0442 H       1  UNL1        0.0235
     37 C           0.2526    9.1275   12.4022 C.ar    1  UNL1        0.0424
     38 C          -0.1659   10.1191   11.5089 C.ar    1  UNL1       -0.0231
     39 C           0.1920    9.9877   10.1731 C.ar    1  UNL1       -0.0565
     40 H          -0.1139   10.7371    9.4599 H       1  UNL1        0.0621
     41 C           0.9322    8.9039    9.7427 C.ar    1  UNL1       -0.0611
     42 H           1.2076    8.8220    8.7016 H       1  UNL1        0.0618
     43 C           1.3031    7.9146   10.6336 C.ar    1  UNL1       -0.0565
     44 H           1.8567    7.0622   10.2753 H       1  UNL1        0.0621
     45 C           0.9671    8.0015   11.9775 C.ar    1  UNL1       -0.0231
     46 C           1.2948    6.8772   12.9338 C.3     1  UNL1       -0.0197
     47 H           1.2779    7.2682   13.9570 H       1  UNL1        0.0344
     48 C           0.2253    5.7869   12.8050 C.3     1  UNL1       -0.0586
     49 H          -0.7615    6.1786   13.0428 H       1  UNL1        0.0235
     50 H           0.4441    4.9700   13.4881 H       1  UNL1        0.0235
     51 H           0.2038    5.3942   11.7906 H       1  UNL1        0.0235
     52 C           2.6864    6.2907   12.7029 C.3     1  UNL1       -0.0586
     53 H           2.7449    5.7516   11.7610 H       1  UNL1        0.0235
     54 H           2.9242    5.5960   13.5042 H       1  UNL1        0.0235
     55 H           3.4326    7.0802   12.7091 H       1  UNL1        0.0235
     56 C          -1.0462   11.2666   11.9559 C.3     1  UNL1       -0.0197
     57 H          -0.9659   11.3667   13.0439 H       1  UNL1        0.0344
     58 C          -2.5056   10.9529   11.6057 C.3     1  UNL1       -0.0586
     59 H          -2.6133   10.8243   10.5309 H       1  UNL1        0.0235
     60 H          -3.1505   11.7698   11.9226 H       1  UNL1        0.0235
     61 H          -2.8433   10.0424   12.0929 H       1  UNL1        0.0235
     62 C          -0.6608   12.6065   11.3248 C.3     1  UNL1       -0.0586
     63 H          -1.2116   13.4110   11.8093 H       1  UNL1        0.0235
     64 H          -0.9081   12.6277   10.2665 H       1  UNL1        0.0235
     65 H           0.4016   12.8062   11.4322 H       1  UNL1        0.0235
@<TRIPOS>BOND
     1    42    41    1
     2    40    39    1
     3    41    39   ar
     4    41    43   ar
     5    39    38   ar
     6    64    62    1
     7    44    43    1
     8    59    58    1
     9    43    45   ar
    10    62    65    1
    11    62    63    1
    12    62    56    1
    13    38    56    1
    14    38    37   ar
    15    58    60    1
    16    58    56    1
    17    58    61    1
    18    53    52    1
    19    51    48    1
    20    56    57    1
    21    45    37   ar
    22    45    46    1
    23    37     1    1
    24    52    55    1
    25    52    46    1
    26    52    54    1
    27    48    46    1
    28    48    49    1
    29    48    50    1
    30    46    47    1
    31     5     4    1
    32     1     4    1
    33     1     3    1
    34     4     6    2
    35     3     2    1
    36     6     2    1
    37     6     7    1
    38     2     8    1
    39    28    27    1
    40    35    33    1
    41    18    17    1
    42    31    29    1
    43    34    33    1
    44    26    23    1
    45    25    23    1
    46    27    33    1
    47    27    29    1
    48    27     9    1
    49    33    36    1
    50     8     9   ar
    51     8    16   ar
    52    23    17    1
    53    23    24    1
    54    29    32    1
    55    29    30    1
    56    17    16    1
    57    17    19    1
    58    21    19    1
    59     9    10   ar
    60    16    14   ar
    61    19    20    1
    62    19    22    1
    63    10    11    1
    64    10    12   ar
    65    14    12   ar
    66    14    15    1
    67    12    13    1
