@<TRIPOS>MOLECULE
2
 16 15 0 0 0
SMALL
GASTEIGER

@<TRIPOS>ATOM
      1 SI         12.4060    6.4078   15.0766 Si      1  UNL1        0.0000
      2 C          10.9394    7.4416   14.4969 C.3     1  UNL1        0.0000
      3 H          11.0823    8.4565   14.8914 H       1  UNL1        0.0000
      4 H          10.0406    7.0641   15.0037 H       1  UNL1        0.0000
      5 C          13.7365    7.4710   15.9547 C.3     1  UNL1        0.0000
      6 H          13.9813    8.3538   15.3736 H       1  UNL1        0.0000
      7 H          14.6558    6.9163   16.1151 H       1  UNL1        0.0000
      8 H          13.3829    7.8100   16.9232 H       1  UNL1        0.0000
      9 C          13.2724    5.5080   13.6173 C.3     1  UNL1        0.0000
     10 H          12.5528    5.0179   12.9651 H       1  UNL1        0.0000
     11 H          13.9628    4.7487   13.9737 H       1  UNL1        0.0000
     12 H          13.8433    6.2030   13.0085 H       1  UNL1        0.0000
     13 C          11.9155    5.0390   16.3327 C.3     1  UNL1        0.0000
     14 H          11.4205    5.4670   17.1987 H       1  UNL1        0.0000
     15 H          12.7863    4.4984   16.6904 H       1  UNL1        0.0000
     16 H          11.2378    4.3122   15.8959 H       1  UNL1        0.0000
@<TRIPOS>BOND
     1    10     9    1
     2    12     9    1
     3     9    11    1
     4     9     1    1
     5     2     3    1
     6     2     4    1
     7     2     1    1
     8     1     5    1
     9     1    13    1
    10     6     5    1
    11    16    13    1
    12     5     7    1
    13     5     8    1
    14    13    15    1
    15    13    14    1
