@<TRIPOS>MOLECULE
2
 16 15 0 0 0
SMALL
GASTEIGER

@<TRIPOS>ATOM
      1 SI         11.5941    7.6669    8.7490 Si      1  UNL1        0.0000
      2 C          11.9591    7.0850   10.5011 C.3     1  UNL1        0.0000
      3 H          12.9552    7.4518   10.7782 H       1  UNL1        0.0000
      4 H          12.0491    5.9911   10.4848 H       1  UNL1        0.0000
      5 C          12.9560    7.2431    7.4630 C.3     1  UNL1        0.0000
      6 H          13.9025    7.7001    7.7344 H       1  UNL1        0.0000
      7 H          12.6983    7.5921    6.4676 H       1  UNL1        0.0000
      8 H          13.1193    6.1715    7.4018 H       1  UNL1        0.0000
      9 C           9.9788    6.8654    8.0987 C.3     1  UNL1        0.0000
     10 H          10.0723    5.7866    8.0154 H       1  UNL1        0.0000
     11 H           9.7190    7.2454    7.1157 H       1  UNL1        0.0000
     12 H           9.1504    7.0870    8.7639 H       1  UNL1        0.0000
     13 C          11.3537    9.5651    8.6796 C.3     1  UNL1        0.0000
     14 H          10.5412    9.8802    9.3298 H       1  UNL1        0.0000
     15 H          11.1125    9.8922    7.6725 H       1  UNL1        0.0000
     16 H          12.2539   10.0913    8.9822 H       1  UNL1        0.0000
@<TRIPOS>BOND
     1     7     5    1
     2    11     9    1
     3     8     5    1
     4     5     6    1
     5     5     1    1
     6    15    13    1
     7    10     9    1
     8     9     1    1
     9     9    12    1
    10    13     1    1
    11    13    16    1
    12    13    14    1
    13     1     2    1
    14     4     2    1
    15     2     3    1
