@<TRIPOS>MOLECULE
2
 16 15 0 0 0
SMALL
GASTEIGER

@<TRIPOS>ATOM
      1 SI          0.3403    5.6153    3.0063 Si      1  UNL1        0.0000
      2 C           1.1901    4.7427    4.4409 C.3     1  UNL1        0.0000
      3 H           0.6084    3.8448    4.6831 H       1  UNL1        0.0000
      4 H           1.1065    5.3864    5.3260 H       1  UNL1        0.0000
      5 C          -1.5272    5.9720    3.2778 C.3     1  UNL1        0.0000
      6 H          -2.0816    5.0508    3.4270 H       1  UNL1        0.0000
      7 H          -1.9706    6.4866    2.4307 H       1  UNL1        0.0000
      8 H          -1.6850    6.5910    4.1556 H       1  UNL1        0.0000
      9 C           1.1657    7.3136    2.6787 C.3     1  UNL1        0.0000
     10 H           1.0468    7.9840    3.5248 H       1  UNL1        0.0000
     11 H           0.7331    7.8032    1.8120 H       1  UNL1        0.0000
     12 H           2.2269    7.1888    2.4894 H       1  UNL1        0.0000
     13 C           0.4704    4.5895    1.3951 C.3     1  UNL1        0.0000
     14 H           1.5093    4.4082    1.1303 H       1  UNL1        0.0000
     15 H           0.0056    5.1076    0.5615 H       1  UNL1        0.0000
     16 H          -0.0263    3.6291    1.4948 H       1  UNL1        0.0000
@<TRIPOS>BOND
     1    15    13    1
     2    14    13    1
     3    13    16    1
     4    13     1    1
     5    11     9    1
     6     7     5    1
     7    12     9    1
     8     9     1    1
     9     9    10    1
    10     1     5    1
    11     1     2    1
    12     5     6    1
    13     5     8    1
    14     2     3    1
    15     2     4    1
