@<TRIPOS>MOLECULE
2
 16 15 0 0 0
SMALL
GASTEIGER

@<TRIPOS>ATOM
      1 SI          3.7688    2.2238    7.3483 Si      1  UNL1        0.0000
      2 C           4.5181    2.6451    5.6697 C.3     1  UNL1        0.0000
      3 H           4.6462    1.6983    5.1281 H       1  UNL1        0.0000
      4 H           5.5388    3.0134    5.8415 H       1  UNL1        0.0000
      5 C           3.3350    0.3634    7.4977 C.3     1  UNL1        0.0000
      6 H           2.7737    0.0207    6.6349 H       1  UNL1        0.0000
      7 H           2.7397    0.1567    8.3817 H       1  UNL1        0.0000
      8 H           4.2348   -0.2405    7.5577 H       1  UNL1        0.0000
      9 C           2.1519    3.2029    7.6917 C.3     1  UNL1        0.0000
     10 H           2.2670    4.2619    7.4709 H       1  UNL1        0.0000
     11 H           1.8515    3.1162    8.7320 H       1  UNL1        0.0000
     12 H           1.3298    2.8323    7.0866 H       1  UNL1        0.0000
     13 C           4.9465    2.6099    8.8167 C.3     1  UNL1        0.0000
     14 H           5.8995    2.1052    8.6927 H       1  UNL1        0.0000
     15 H           4.5242    2.2797    9.7607 H       1  UNL1        0.0000
     16 H           5.1498    3.6724    8.9045 H       1  UNL1        0.0000
@<TRIPOS>BOND
     1     3     2    1
     2     2     4    1
     3     2     1    1
     4     6     5    1
     5    12     9    1
     6     1     5    1
     7     1     9    1
     8     1    13    1
     9    10     9    1
    10     5     8    1
    11     5     7    1
    12     9    11    1
    13    14    13    1
    14    13    16    1
    15    13    15    1
