@<TRIPOS>MOLECULE
1
 7 6 0 0 0
SMALL
GASTEIGER

@<TRIPOS>ATOM
      1 C          10.1086    4.4562    2.3100 C.3     1  UNL1       -0.0562
      2 C          10.5539    2.9956    2.5601 C.3     1  UNL1       -0.0653
      3 H          11.2511    2.6436    1.7877 H       1  UNL1        0.0230
      4 H          11.0570    2.8898    3.5245 H       1  UNL1        0.0230
      5 H           9.6997    2.3154    2.5562 H       1  UNL1        0.0230
      6 H           9.6800    4.4550    1.2838 H       1  UNL1        0.0263
      7 H          11.0523    5.0325    2.1927 H       1  UNL1        0.0263
@<TRIPOS>BOND
     1     6     1    1
     2     3     2    1
     3     7     1    1
     4     1     2    1
     5     5     2    1
     6     2     4    1
