@<TRIPOS>MOLECULE
1
 7 6 0 0 0
SMALL
GASTEIGER

@<TRIPOS>ATOM
      1 C           7.1796    4.4562    5.3418 C.3     1  UNL1       -0.0562
      2 C           6.7342    2.9956    5.0917 C.3     1  UNL1       -0.0653
      3 H           7.6081    4.4550    6.3681 H       1  UNL1        0.0263
      4 H           6.2358    5.0325    5.4592 H       1  UNL1        0.0263
      5 H           6.0370    2.6436    5.8641 H       1  UNL1        0.0230
      6 H           6.2312    2.8898    4.1273 H       1  UNL1        0.0230
      7 H           7.5885    2.3154    5.0956 H       1  UNL1        0.0230
@<TRIPOS>BOND
     1     6     2    1
     2     2     7    1
     3     2     1    1
     4     2     5    1
     5     1     4    1
     6     1     3    1
