@<TRIPOS>MOLECULE
1
 16 15 0 0 0
SMALL
GASTEIGER

@<TRIPOS>ATOM
      1 C          15.3983    8.6027    7.7731 C.3     1  UNL1        0.0000
      2 H          14.7411    8.6922    8.6461 H       1  UNL1        0.0000
      3 H          15.9428    7.6587    7.8963 H       1  UNL1        0.0000
      4 SI         16.6163   10.0230    7.7091 Si      1  UNL1        0.0000
      5 C          17.7116   10.3826    9.2430 C.3     1  UNL1        0.0000
      6 H          18.3710   11.2305    9.0821 H       1  UNL1        0.0000
      7 H          18.3321    9.5268    9.4895 H       1  UNL1        0.0000
      8 H          17.1015   10.6028   10.1136 H       1  UNL1        0.0000
      9 C          15.6066   11.6281    7.3709 C.3     1  UNL1        0.0000
     10 H          16.0922   12.2816    6.6528 H       1  UNL1        0.0000
     11 H          15.4839   12.2042    8.2828 H       1  UNL1        0.0000
     12 H          14.6106   11.3812    6.9953 H       1  UNL1        0.0000
     13 C          17.8216    9.6591    6.2546 C.3     1  UNL1        0.0000
     14 H          18.6391    9.0306    6.5930 H       1  UNL1        0.0000
     15 H          18.2630   10.5632    5.8472 H       1  UNL1        0.0000
     16 H          17.3164    9.1319    5.4451 H       1  UNL1        0.0000
@<TRIPOS>BOND
     1    16    13    1
     2    15    13    1
     3    13    14    1
     4    13     4    1
     5    10     9    1
     6    12     9    1
     7     9     4    1
     8     9    11    1
     9     4     1    1
    10     4     5    1
    11     1     3    1
    12     1     2    1
    13     6     5    1
    14     5     7    1
    15     5     8    1
