@<TRIPOS>MOLECULE
1
 16 15 0 0 0
SMALL
GASTEIGER

@<TRIPOS>ATOM
      1 C          12.2606    8.6200    7.0090 C.3     1  UNL1        0.0000
      2 H          11.4906    8.3877    6.2552 H       1  UNL1        0.0000
      3 H          12.3056    7.7413    7.6753 H       1  UNL1        0.0000
      4 SI         11.6275   10.0608    8.0451 Si      1  UNL1        0.0000
      5 C           9.8644    9.7211    8.7329 C.3     1  UNL1        0.0000
      6 H           9.5177   10.5248    9.3755 H       1  UNL1        0.0000
      7 H           9.8425    8.8048    9.3148 H       1  UNL1        0.0000
      8 H           9.1422    9.6109    7.9296 H       1  UNL1        0.0000
      9 C          12.7296   10.4051    9.5760 C.3     1  UNL1        0.0000
     10 H          12.2853   11.1757   10.1982 H       1  UNL1        0.0000
     11 H          13.7260   10.7365    9.3038 H       1  UNL1        0.0000
     12 H          12.8307    9.5152   10.1897 H       1  UNL1        0.0000
     13 C          11.4789   11.6899    7.0372 C.3     1  UNL1        0.0000
     14 H          10.7718   12.3622    7.5128 H       1  UNL1        0.0000
     15 H          11.1192   11.5068    6.0290 H       1  UNL1        0.0000
     16 H          12.4241   12.2195    6.9695 H       1  UNL1        0.0000
@<TRIPOS>BOND
     1    15    13    1
     2     2     1    1
     3    16    13    1
     4     1     3    1
     5     1     4    1
     6    13    14    1
     7    13     4    1
     8     8     5    1
     9     4     5    1
    10     4     9    1
    11     5     7    1
    12     5     6    1
    13    11     9    1
    14     9    12    1
    15     9    10    1
