@<TRIPOS>MOLECULE
1
 25 25 0 0 0
SMALL
GASTEIGER

@<TRIPOS>ATOM
      1 C           2.2513    2.7932   12.2977 C.3     1  UNL1       -0.0053
      2 C           1.8994    3.3070   11.0023 C.3     1  UNL1        0.0052
      3 C           0.6744    2.7052   10.6049 C.2     1  UNL1       -0.0658
      4 C           0.2760    1.8026   11.6171 C.2     1  UNL1       -0.0658
      5 C           1.2289    1.8607   12.6689 C.3     1  UNL1        0.0052
      6 C           3.2827    3.3842   13.2216 C.3     1  UNL1       -0.0574
      7 C           2.5767    4.4138   10.2435 C.3     1  UNL1       -0.0545
      8 C          -0.1331    3.0969    9.4015 C.3     1  UNL1       -0.0430
      9 C          -1.0137    1.0365   11.6699 C.3     1  UNL1       -0.0430
     10 C           1.0293    1.1980   14.0027 C.3     1  UNL1       -0.0545
     11 H           2.8654    4.2546   13.7346 H       1  UNL1        0.0236
     12 H           4.1715    3.7050   12.6817 H       1  UNL1        0.0236
     13 H           3.6009    2.6696   13.9778 H       1  UNL1        0.0236
     14 H           2.8904    4.0787    9.2515 H       1  UNL1        0.0239
     15 H           3.4473    4.7774   10.7797 H       1  UNL1        0.0239
     16 H           1.8893    5.2507   10.1088 H       1  UNL1        0.0239
     17 H          -0.6861    2.2483    9.0032 H       1  UNL1        0.0275
     18 H           0.5047    3.4849    8.6109 H       1  UNL1        0.0275
     19 H          -0.8537    3.8718    9.6736 H       1  UNL1        0.0275
     20 H          -0.8754    0.0720   12.1559 H       1  UNL1        0.0275
     21 H          -1.4053    0.8637   10.6694 H       1  UNL1        0.0275
     22 H          -1.7641    1.5955   12.2337 H       1  UNL1        0.0275
     23 H           0.0546    1.4765   14.4062 H       1  UNL1        0.0239
     24 H           1.7869    1.5102   14.7157 H       1  UNL1        0.0239
     25 H           1.0497    0.1099   13.9165 H       1  UNL1        0.0239
@<TRIPOS>BOND
     1    18     8    1
     2    17     8    1
     3    14     7    1
     4     8    19    1
     5     8     3    1
     6    16     7    1
     7     7    15    1
     8     7     2    1
     9     3     2    1
    10     3     4    2
    11    21     9    1
    12     2     1    1
    13     4     9    1
    14     4     5    1
    15     9    20    1
    16     9    22    1
    17     1     5    1
    18     1     6    1
    19     5    10    1
    20    12     6    1
    21     6    11    1
    22     6    13    1
    23    25    10    1
    24    10    23    1
    25    10    24    1
