@<TRIPOS>MOLECULE
2
 15 14 0 0 0
SMALL
GASTEIGER

@<TRIPOS>ATOM
      1 SI         -0.2319    0.4543   -2.4168 Si      1  UNL1        0.0000
      2 C           1.9306    0.4147   -0.2539 C.1     1  UNL1        0.0000
      3 C           1.0621    0.4172   -1.1110 C.1     1  UNL1        0.0000
      4 C           0.5684    0.6258   -4.1408 C.3     1  UNL1        0.0000
      5 H           1.1882    1.5161   -4.1953 H       1  UNL1        0.0000
      6 H          -0.1789    0.6966   -4.9264 H       1  UNL1        0.0000
      7 H           1.2024   -0.2273   -4.3653 H       1  UNL1        0.0000
      8 C          -1.2474   -1.1648   -2.3586 C.3     1  UNL1        0.0000
      9 H          -0.6168   -2.0303   -2.5423 H       1  UNL1        0.0000
     10 H          -2.0363   -1.1701   -3.1055 H       1  UNL1        0.0000
     11 H          -1.7155   -1.3009   -1.3873 H       1  UNL1        0.0000
     12 C          -1.4116    1.9279   -2.1196 C.3     1  UNL1        0.0000
     13 H          -1.9156    1.8439   -1.1606 H       1  UNL1        0.0000
     14 H          -2.1778    1.9867   -2.8876 H       1  UNL1        0.0000
     15 H          -0.8699    2.8693   -2.1228 H       1  UNL1        0.0000
@<TRIPOS>BOND
     1     6     4    1
     2     7     4    1
     3     5     4    1
     4     4     1    1
     5    10     8    1
     6    14    12    1
     7     9     8    1
     8     1     8    1
     9     1    12    1
    10     1     3    1
    11     8    11    1
    12    15    12    1
    13    12    13    1
    14     3     2    3
