@<TRIPOS>MOLECULE
2
 16 15 0 0 0
SMALL
GASTEIGER

@<TRIPOS>ATOM
      1 SI          4.9704    3.3079    1.4281 Si      1  UNL1        0.0000
      2 C           4.8718    2.0824    2.8721 C.3     1  UNL1        0.0000
      3 C           6.7132    3.6284    0.6867 C.3     1  UNL1        0.0000
      4 C           3.8569    2.7247   -0.0216 C.3     1  UNL1        0.0000
      5 C           4.3031    5.0206    1.9797 C.3     1  UNL1        0.0000
      6 H           4.4669    2.6218    3.7345 H       1  UNL1        0.0000
      7 H           4.1216    1.3189    2.6185 H       1  UNL1        0.0000
      8 H           7.2724    2.7106    0.5330 H       1  UNL1        0.0000
      9 H           7.3070    4.2793    1.3210 H       1  UNL1        0.0000
     10 H           6.6237    4.1182   -0.2788 H       1  UNL1        0.0000
     11 H           4.1826    1.7752   -0.4359 H       1  UNL1        0.0000
     12 H           3.8566    3.4482   -0.8309 H       1  UNL1        0.0000
     13 H           2.8288    2.5997    0.3036 H       1  UNL1        0.0000
     14 H           3.2659    4.9532    2.2928 H       1  UNL1        0.0000
     15 H           4.3527    5.7411    1.1695 H       1  UNL1        0.0000
     16 H           4.8677    5.4292    2.8128 H       1  UNL1        0.0000
@<TRIPOS>BOND
     1    12     4    1
     2    11     4    1
     3    10     3    1
     4     4    13    1
     5     4     1    1
     6     8     3    1
     7     3     9    1
     8     3     1    1
     9    15     5    1
    10     1     5    1
    11     1     2    1
    12     5    14    1
    13     5    16    1
    14     7     2    1
    15     2     6    1
