@<TRIPOS>MOLECULE
3
 15 15 0 0 0
SMALL
GASTEIGER

@<TRIPOS>ATOM
      1 N           2.7120    6.4818    6.3946 N.pl3   1  UNL1       -0.3107
      2 N           4.7931    5.9882    6.3878 N.pl3   1  UNL1       -0.3107
      3 C           3.5736    5.4707    6.6540 C.3     1  UNL1        0.1860
      4 C           1.2915    6.4159    6.6214 C.3     1  UNL1        0.0024
      5 C           3.3759    7.5967    5.9713 C.2     1  UNL1        0.0075
      6 C           4.6943    7.2826    5.9625 C.2     1  UNL1        0.0075
      7 C           6.0495    5.2993    6.5327 C.3     1  UNL1        0.0024
      8 H           0.8251    7.3268    6.2475 H       1  UNL1        0.0428
      9 H           1.0967    6.3208    7.6952 H       1  UNL1        0.0428
     10 H           0.8659    5.5518    6.1070 H       1  UNL1        0.0428
     11 H           2.8766    8.5082    5.7130 H       1  UNL1        0.0793
     12 H           5.5475    7.8719    5.6964 H       1  UNL1        0.0793
     13 H           6.4089    4.9541    5.5608 H       1  UNL1        0.0428
     14 H           6.7860    5.9783    6.9626 H       1  UNL1        0.0428
     15 H           5.9199    4.4330    7.1898 H       1  UNL1        0.0428
@<TRIPOS>BOND
     1    13     7    1
     2    12     6    1
     3    11     5    1
     4     6     5    2
     5     6     2    1
     6     5     1    1
     7    10     4    1
     8     8     4    1
     9     2     7    1
    10     2     3    1
    11     1     4    1
    12     1     3    1
    13     7    14    1
    14     7    15    1
    15     4     9    1
