@<TRIPOS>MOLECULE
3
 15 15 0 0 0
SMALL
GASTEIGER

@<TRIPOS>ATOM
      1 N           2.3744    0.1556    9.1822 N.pl3   1  UNL1       -0.3107
      2 N           1.1535   -1.2919   10.1719 N.pl3   1  UNL1       -0.3107
      3 C           2.0379   -0.2982   10.4088 C.3     1  UNL1        0.1860
      4 C           3.2583    1.2541    8.9035 C.3     1  UNL1        0.0024
      5 C           1.7229   -0.5422    8.2028 C.2     1  UNL1        0.0075
      6 C           0.9508   -1.4599    8.8304 C.2     1  UNL1        0.0075
      7 C           0.4732   -2.0759   11.1674 C.3     1  UNL1        0.0024
      8 H           4.0289    0.9407    8.1978 H       1  UNL1        0.0428
      9 H           3.7290    1.5823    9.8313 H       1  UNL1        0.0428
     10 H           2.6961    2.0873    8.4754 H       1  UNL1        0.0428
     11 H           1.8550   -0.3340    7.1608 H       1  UNL1        0.0793
     12 H           0.2871   -2.2012    8.4350 H       1  UNL1        0.0793
     13 H           0.8580   -3.0968   11.1718 H       1  UNL1        0.0428
     14 H           0.6244   -1.6240   12.1501 H       1  UNL1        0.0428
     15 H          -0.5949   -2.0973   10.9457 H       1  UNL1        0.0428
@<TRIPOS>BOND
     1    11     5    1
     2     8     4    1
     3     5     6    2
     4     5     1    1
     5    12     6    1
     6    10     4    1
     7     6     2    1
     8     4     1    1
     9     4     9    1
    10     1     3    1
    11     2     3    1
    12     2     7    1
    13    15     7    1
    14     7    13    1
    15     7    14    1
