@<TRIPOS>MOLECULE
3
 15 15 0 0 0
SMALL
GASTEIGER

@<TRIPOS>ATOM
      1 N           4.2238    1.0145   15.6399 N.pl3   1  UNL1       -0.3107
      2 N           5.4991   -0.6287   15.1493 N.pl3   1  UNL1       -0.3107
      3 C           4.4405    0.0741   14.6957 C.3     1  UNL1        0.1860
      4 C           3.2301    2.0511   15.5601 C.3     1  UNL1        0.0024
      5 C           5.1243    0.9001   16.6600 C.2     1  UNL1        0.0075
      6 C           5.9315   -0.1432   16.3517 C.2     1  UNL1        0.0075
      7 C           6.1152   -1.7393   14.4744 C.3     1  UNL1        0.0024
      8 H           3.6149    2.8881   14.9721 H       1  UNL1        0.0428
      9 H           2.9832    2.3937   16.5654 H       1  UNL1        0.0428
     10 H           2.3328    1.6633   15.0708 H       1  UNL1        0.0428
     11 H           5.1241    1.5512   17.5104 H       1  UNL1        0.0793
     12 H           6.7598   -0.5657   16.8824 H       1  UNL1        0.0793
     13 H           7.1968   -1.6002   14.4476 H       1  UNL1        0.0428
     14 H           5.8937   -2.6713   14.9991 H       1  UNL1        0.0428
     15 H           5.7310   -1.7956   13.4512 H       1  UNL1        0.0428
@<TRIPOS>BOND
     1    15     7    1
     2    13     7    1
     3     7    14    1
     4     7     2    1
     5     3     2    1
     6     3     1    1
     7     8     4    1
     8    10     4    1
     9     2     6    1
    10     4     1    1
    11     4     9    1
    12     1     5    1
    13     6     5    2
    14     6    12    1
    15     5    11    1
