@<TRIPOS>MOLECULE
1
 16 15 0 0 0
SMALL
GASTEIGER

@<TRIPOS>ATOM
      1 C           1.7351    1.3833    1.6310 C.3     1  UNL1       -0.0476
      2 H           0.6366    1.2354    1.6705 H       1  UNL1        0.0271
      3 H           1.9271    1.8284    0.6295 H       1  UNL1        0.0271
      4 C           2.3522   -0.0320    1.6170 C.3     1  UNL1       -0.0377
      5 C           1.8284   -0.8379    0.4190 C.3     1  UNL1       -0.0601
      6 H           2.1102   -0.3592   -0.5166 H       1  UNL1        0.0235
      7 H           0.7431   -0.9140    0.4504 H       1  UNL1        0.0235
      8 H           2.2410   -1.8448    0.4243 H       1  UNL1        0.0235
      9 C           1.9701   -0.7605    2.9125 C.3     1  UNL1       -0.0601
     10 H           0.9010   -0.9607    2.9391 H       1  UNL1        0.0235
     11 H           2.2274   -0.1416    3.7772 H       1  UNL1        0.0235
     12 H           2.4939   -1.7113    2.9873 H       1  UNL1        0.0235
     13 C           3.8794    0.0659    1.5160 C.3     1  UNL1       -0.0601
     14 H           4.1712    0.5687    0.5951 H       1  UNL1        0.0235
     15 H           4.3277   -0.9264    1.5203 H       1  UNL1        0.0235
     16 H           4.2765    0.6404    2.3604 H       1  UNL1        0.0235
@<TRIPOS>BOND
     1     6     5    1
     2     5     8    1
     3     5     7    1
     4     5     4    1
     5    14    13    1
     6     3     1    1
     7    13    15    1
     8    13     4    1
     9    13    16    1
    10     4     1    1
    11     4     9    1
    12     1     2    1
    13     9    10    1
    14     9    12    1
    15     9    11    1
