@<TRIPOS>MOLECULE
2
 16 15 0 0 0
SMALL
GASTEIGER

@<TRIPOS>ATOM
      1 SI         -1.6301    4.7554    5.3030 Si      1  UNL1        0.0000
      2 C          -2.5707    3.1303    5.4231 C.3     1  UNL1        0.0000
      3 H          -3.5551    3.3525    5.8684 H       1  UNL1        0.0000
      4 H          -2.0672    2.5341    6.2034 H       1  UNL1        0.0000
      5 C          -0.0538    4.5438    4.2233 C.3     1  UNL1        0.0000
      6 H           0.7747    4.1696    4.8183 H       1  UNL1        0.0000
      7 H           0.2678    5.4863    3.7899 H       1  UNL1        0.0000
      8 H          -0.2187    3.8428    3.4061 H       1  UNL1        0.0000
      9 C          -2.7357    6.1334    4.5441 C.3     1  UNL1        0.0000
     10 H          -3.1604    5.8344    3.5916 H       1  UNL1        0.0000
     11 H          -2.1688    7.0445    4.3788 H       1  UNL1        0.0000
     12 H          -3.5566    6.3815    5.2110 H       1  UNL1        0.0000
     13 C          -1.0176    5.4754    6.9762 C.3     1  UNL1        0.0000
     14 H          -1.8495    5.6975    7.6380 H       1  UNL1        0.0000
     15 H          -0.4517    6.3928    6.8425 H       1  UNL1        0.0000
     16 H          -0.3745    4.7677    7.4916 H       1  UNL1        0.0000
@<TRIPOS>BOND
     1     8     5    1
     2    10     9    1
     3     7     5    1
     4     5     6    1
     5     5     1    1
     6    11     9    1
     7     9    12    1
     8     9     1    1
     9     1     2    1
    10     1    13    1
    11     2     3    1
    12     2     4    1
    13    15    13    1
    14    13    16    1
    15    13    14    1
