@<TRIPOS>MOLECULE
1
 4 3 0 0 0
SMALL
GASTEIGER

@<TRIPOS>ATOM
      1 C          -0.5668   12.9267   21.6251 C.3     1  UNL1       -0.0681
      2 H          -0.5347   12.7598   22.7121 H       1  UNL1        0.0227
      3 H          -0.7835   11.9529   21.1642 H       1  UNL1        0.0227
      4 H          -1.4545   13.5518   21.4355 H       1  UNL1        0.0227
@<TRIPOS>BOND
     1     3     1    1
     2     4     1    1
     3     1     2    1
