@<TRIPOS>MOLECULE
1
 4 3 0 0 0
SMALL
GASTEIGER

@<TRIPOS>ATOM
      1 C           0.0020   15.6450   19.9376 C.3     1  UNL1       -0.0681
      2 H          -0.7168   15.9836   20.7018 H       1  UNL1        0.0227
      3 H          -0.5928   15.3001   19.0790 H       1  UNL1        0.0227
      4 H           0.5326   16.5493   19.6133 H       1  UNL1        0.0227
@<TRIPOS>BOND
     1     3     1    1
     2     4     1    1
     3     1     2    1
