@<TRIPOS>MOLECULE
1
 25 25 0 0 0
SMALL
GASTEIGER

@<TRIPOS>ATOM
      1 C           2.3298    2.7366    3.7446 C.3     1  UNL1       -0.0053
      2 C           2.0501    3.1802    2.4122 C.3     1  UNL1        0.0052
      3 C           0.8456    2.5616    1.9837 C.2     1  UNL1       -0.0658
      4 C           0.3935    1.7098    3.0191 C.2     1  UNL1       -0.0658
      5 C           1.2919    1.8272    4.1157 C.3     1  UNL1        0.0052
      6 C           3.3447    3.3515    4.6744 C.3     1  UNL1       -0.0574
      7 C           2.7963    4.2107    1.6093 C.3     1  UNL1       -0.0545
      8 C           0.1413    2.8180    0.6815 C.3     1  UNL1       -0.0430
      9 C          -0.8632    0.8856    2.9833 C.3     1  UNL1       -0.0430
     10 C           1.0486    1.2121    5.4685 C.3     1  UNL1       -0.0545
     11 H           2.9357    4.2609    5.1238 H       1  UNL1        0.0236
     12 H           4.2616    3.6171    4.1499 H       1  UNL1        0.0236
     13 H           3.6146    2.6727    5.4820 H       1  UNL1        0.0236
     14 H           2.1262    5.0240    1.3244 H       1  UNL1        0.0239
     15 H           3.2043    3.7736    0.6921 H       1  UNL1        0.0239
     16 H           3.6125    4.6345    2.1861 H       1  UNL1        0.0239
     17 H          -0.6140    3.5981    0.8044 H       1  UNL1        0.0275
     18 H          -0.3590    1.9162    0.3278 H       1  UNL1        0.0275
     19 H           0.8464    3.1402   -0.0840 H       1  UNL1        0.0275
     20 H          -1.7439    1.5185    3.1152 H       1  UNL1        0.0275
     21 H          -0.8573    0.1358    3.7725 H       1  UNL1        0.0275
     22 H          -0.9590    0.3713    2.0241 H       1  UNL1        0.0275
     23 H           0.0607    1.5005    5.8324 H       1  UNL1        0.0239
     24 H           1.7812    1.5570    6.1941 H       1  UNL1        0.0239
     25 H           1.0805    0.1201    5.4231 H       1  UNL1        0.0239
@<TRIPOS>BOND
     1    19     8    1
     2    18     8    1
     3     8    17    1
     4     8     3    1
     5    15     7    1
     6    14     7    1
     7     7    16    1
     8     7     2    1
     9     3     2    1
    10     3     4    2
    11    22     9    1
    12     2     1    1
    13     9     4    1
    14     9    20    1
    15     9    21    1
    16     4     5    1
    17     1     5    1
    18     1     6    1
    19     5    10    1
    20    12     6    1
    21     6    11    1
    22     6    13    1
    23    25    10    1
    24    10    23    1
    25    10    24    1
