@<TRIPOS>MOLECULE
1
 4 3 0 0 0
SMALL
GASTEIGER

@<TRIPOS>ATOM
      1 C           4.6614    8.0681   13.1766 C.3     1  UNL1       -0.0681
      2 H           4.1584    7.9690   12.2020 H       1  UNL1        0.0227
      3 H           3.8867    7.9577   13.9520 H       1  UNL1        0.0227
      4 H           5.3228    7.1952   13.2645 H       1  UNL1        0.0227
@<TRIPOS>BOND
     1     2     1    1
     2     1     4    1
     3     1     3    1
