@<TRIPOS>MOLECULE
1
 4 3 0 0 0
SMALL
GASTEIGER

@<TRIPOS>ATOM
      1 C           6.0532    9.9558   15.5410 C.3     1  UNL1       -0.0681
      2 H           6.9028    9.3581   15.8890 H       1  UNL1        0.0227
      3 H           5.1573    9.5265   16.0225 H       1  UNL1        0.0227
      4 H           6.1915   10.9571   15.9757 H       1  UNL1        0.0227
@<TRIPOS>BOND
     1     1     2    1
     2     1     4    1
     3     1     3    1
