@<TRIPOS>MOLECULE
1
 14 14 0 0 0
SMALL
GASTEIGER

@<TRIPOS>ATOM
      1 C           1.8428   17.0515    3.6646 C.3     1  UNL1       -0.0237
      2 C           0.7552   17.0143    1.4116 C.ar    1  UNL1       -0.0586
      3 C           0.6559   17.4450    0.1033 C.ar    1  UNL1       -0.0615
      4 C           1.5166   18.4154   -0.3831 C.ar    1  UNL1       -0.0617
      5 C           2.4639   18.9618    0.4668 C.ar    1  UNL1       -0.0615
      6 C           2.5604   18.5320    1.7759 C.ar    1  UNL1       -0.0586
      7 C           1.7255   17.5285    2.2784 C.ar    1  UNL1       -0.0470
      8 H           0.8620   16.7584    4.0395 H       1  UNL1        0.0316
      9 H           2.2273   17.8485    4.3002 H       1  UNL1        0.0316
     10 H           0.0620   16.2720    1.7796 H       1  UNL1        0.0620
     11 H          -0.1045   17.0284   -0.5432 H       1  UNL1        0.0618
     12 H           1.4391   18.7533   -1.4061 H       1  UNL1        0.0618
     13 H           3.1251   19.7380    0.1065 H       1  UNL1        0.0618
     14 H           3.2897   18.9869    2.4297 H       1  UNL1        0.0620
@<TRIPOS>BOND
     1    12     4    1
     2    11     3    1
     3     4     3   ar
     4     4     5   ar
     5     3     2   ar
     6    13     5    1
     7     5     6   ar
     8     2    10    1
     9     2     7   ar
    10     6     7   ar
    11     6    14    1
    12     7     1    1
    13     1     8    1
    14     1     9    1
