@<TRIPOS>MOLECULE
1
 4 3 0 0 0
SMALL
GASTEIGER

@<TRIPOS>ATOM
      1 C           9.8758   11.0497   15.0091 C.3     1  UNL1       -0.0681
      2 H          10.1730   12.1121   15.0058 H       1  UNL1        0.0227
      3 H          10.4285   10.5896   15.8458 H       1  UNL1        0.0227
      4 H           8.8208   11.0511   15.3331 H       1  UNL1        0.0227
@<TRIPOS>BOND
     1     2     1    1
     2     1     4    1
     3     1     3    1
