@<TRIPOS>MOLECULE
1
 4 3 0 0 0
SMALL
GASTEIGER

@<TRIPOS>ATOM
      1 C           1.1023    8.8405    5.2855 C.3     1  UNL1       -0.0681
      2 H           1.0246    7.9659    5.9536 H       1  UNL1        0.0227
      3 H           0.0799    9.0268    4.9150 H       1  UNL1        0.0227
      4 H           1.3450    9.6961    5.9386 H       1  UNL1        0.0227
@<TRIPOS>BOND
     1     3     1    1
     2     1     4    1
     3     1     2    1
