@<TRIPOS>MOLECULE
1
 7 6 0 0 0
SMALL
GASTEIGER

@<TRIPOS>ATOM
      1 C          -0.2115    2.8115    6.0607 C.3     1  UNL1       -0.0562
      2 C          -1.0638    3.8782    6.7498 C.3     1  UNL1       -0.0653
      3 H          -0.8679    2.2259    5.4055 H       1  UNL1        0.0263
      4 H           0.1390    2.1141    6.8345 H       1  UNL1        0.0263
      5 H          -1.3992    4.6320    6.0337 H       1  UNL1        0.0230
      6 H          -1.9528    3.4446    7.2163 H       1  UNL1        0.0230
      7 H          -0.4967    4.3810    7.5331 H       1  UNL1        0.0230
@<TRIPOS>BOND
     1     3     1    1
     2     5     2    1
     3     1     2    1
     4     1     4    1
     5     2     6    1
     6     2     7    1
