@<TRIPOS>MOLECULE
2
 16 15 0 0 0
SMALL
GASTEIGER

@<TRIPOS>ATOM
      1 SI         10.6552    8.5215   13.2125 Si      1  UNL1        0.0000
      2 C           8.7858    8.2830   13.0547 C.3     1  UNL1        0.0000
      3 H           8.3862    7.8802   13.9905 H       1  UNL1        0.0000
      4 H           8.6085    7.5114   12.3045 H       1  UNL1        0.0000
      5 C          11.4186   10.1817   12.5919 C.3     1  UNL1        0.0000
      6 H          11.1363   10.4025   11.5659 H       1  UNL1        0.0000
      7 H          12.5046   10.1345   12.6247 H       1  UNL1        0.0000
      8 H          11.1186   11.0260   13.2097 H       1  UNL1        0.0000
      9 C          11.6014    7.1690   12.2234 C.3     1  UNL1        0.0000
     10 H          11.3576    6.1760   12.5873 H       1  UNL1        0.0000
     11 H          12.6768    7.2924   12.3056 H       1  UNL1        0.0000
     12 H          11.3518    7.1955   11.1666 H       1  UNL1        0.0000
     13 C          11.2969    8.3679   15.0201 C.3     1  UNL1        0.0000
     14 H          12.3457    8.0886   15.0340 H       1  UNL1        0.0000
     15 H          10.7535    7.6073   15.5716 H       1  UNL1        0.0000
     16 H          11.2060    9.3022   15.5653 H       1  UNL1        0.0000
@<TRIPOS>BOND
     1    12     9    1
     2     6     5    1
     3     9    11    1
     4     9    10    1
     5     9     1    1
     6     4     2    1
     7     5     7    1
     8     5     8    1
     9     5     1    1
    10     2     1    1
    11     2     3    1
    12     1    13    1
    13    13    14    1
    14    13    16    1
    15    13    15    1
