@<TRIPOS>MOLECULE
1
 4 3 0 0 0
SMALL
GASTEIGER

@<TRIPOS>ATOM
      1 C          23.9351    6.5711   18.9750 C.3     1  UNL1       -0.0681
      2 H          24.4529    6.5768   19.9422 H       1  UNL1        0.0227
      3 H          24.7120    6.6813   18.2052 H       1  UNL1        0.0227
      4 H          23.5081    5.5668   18.8515 H       1  UNL1        0.0227
@<TRIPOS>BOND
     1     3     1    1
     2     4     1    1
     3     1     2    1
