@<TRIPOS>MOLECULE
1
 4 3 0 0 0
SMALL
GASTEIGER

@<TRIPOS>ATOM
      1 C          -0.2018    3.0491   11.7312 C.3     1  UNL1       -0.0681
      2 H          -0.3098    1.9576   11.6722 H       1  UNL1        0.0227
      3 H          -0.5813    3.3404   12.7250 H       1  UNL1        0.0227
      4 H           0.8780    3.2501   11.7350 H       1  UNL1        0.0227
@<TRIPOS>BOND
     1     2     1    1
     2     1     4    1
     3     1     3    1
