@<TRIPOS>MOLECULE
1
 4 3 0 0 0
SMALL
GASTEIGER

@<TRIPOS>ATOM
      1 C          -2.9689    4.8533   10.9656 C.3     1  UNL1       -0.0681
      2 H          -3.8335    4.2970   10.5871 H       1  UNL1        0.0227
      3 H          -3.0856    5.8937   10.6331 H       1  UNL1        0.0227
      4 H          -3.0266    4.8415   12.0638 H       1  UNL1        0.0227
@<TRIPOS>BOND
     1     2     1    1
     2     3     1    1
     3     1     4    1
