@<TRIPOS>MOLECULE
2
 23 23 0 0 0
SMALL
GASTEIGER

@<TRIPOS>ATOM
      1 SI          1.1843    8.3353    8.7313 Si      1  UNL1        0.0000
      2 C           2.8620    9.2099    8.7872 C.3     1  UNL1        0.0000
      3 H           3.5212    8.6996    8.0663 H       1  UNL1        0.0000
      4 H           3.3116    8.9980    9.7704 H       1  UNL1        0.0000
      5 C          -0.2292    9.6110    8.4335 C.3     1  UNL1        0.0000
      6 H          -1.1198    9.1422    8.0242 H       1  UNL1        0.0000
      7 H           0.0871   10.3942    7.7401 H       1  UNL1        0.0000
      8 H          -0.5245   10.1005    9.3587 H       1  UNL1        0.0000
      9 C           0.7270    7.3718   10.3268 C.3     1  UNL1        0.0000
     10 H          -0.2725    6.9509   10.2668 H       1  UNL1        0.0000
     11 H           0.7631    8.0064   11.2077 H       1  UNL1        0.0000
     12 H           1.4149    6.5509   10.5028 H       1  UNL1        0.0000
     13 C           1.1560    7.0903    7.2895 C.ar    1  UNL1        0.0000
     14 C           0.6757    7.4314    6.0294 C.ar    1  UNL1        0.0000
     15 H           0.2375    8.4081    5.8779 H       1  UNL1        0.0000
     16 C           0.7330    6.5461    4.9683 C.ar    1  UNL1        0.0000
     17 H           0.3685    6.8401    3.9943 H       1  UNL1        0.0000
     18 C           1.2636    5.2818    5.1550 C.ar    1  UNL1        0.0000
     19 H           1.3000    4.5802    4.3362 H       1  UNL1        0.0000
     20 C           1.7458    4.9183    6.4005 C.ar    1  UNL1        0.0000
     21 H           2.1622    3.9320    6.5518 H       1  UNL1        0.0000
     22 C           1.6992    5.8192    7.4483 C.ar    1  UNL1        0.0000
     23 H           2.0895    5.5299    8.4130 H       1  UNL1        0.0000
@<TRIPOS>BOND
     1    17    16    1
     2    19    18    1
     3    16    18   ar
     4    16    14   ar
     5    18    20   ar
     6    15    14    1
     7    14    13   ar
     8    20    21    1
     9    20    22   ar
    10    13    22   ar
    11    13     1    1
    12    22    23    1
    13     7     5    1
    14     6     5    1
    15     3     2    1
    16     5     1    1
    17     5     8    1
    18     1     2    1
    19     1     9    1
    20     2     4    1
    21    10     9    1
    22     9    12    1
    23     9    11    1
