@<TRIPOS>MOLECULE
2
 16 15 0 0 0
SMALL
GASTEIGER

@<TRIPOS>ATOM
      1 SI          3.0599    6.5321    2.8769 Si      1  UNL1        0.0000
      2 C           4.5716    5.8767    3.7963 C.3     1  UNL1        0.0000
      3 H           5.1484    6.7417    4.1590 H       1  UNL1        0.0000
      4 H           5.2281    5.3826    3.0569 H       1  UNL1        0.0000
      5 C           2.2899    8.0069    3.8274 C.3     1  UNL1        0.0000
      6 H           1.4124    8.3919    3.3170 H       1  UNL1        0.0000
      7 H           2.9969    8.8258    3.9156 H       1  UNL1        0.0000
      8 H           1.9915    7.7160    4.8299 H       1  UNL1        0.0000
      9 C           3.3955    7.1481    1.0866 C.3     1  UNL1        0.0000
     10 H           2.4847    7.4742    0.5927 H       1  UNL1        0.0000
     11 H           3.8338    6.3630    0.4768 H       1  UNL1        0.0000
     12 H           4.0872    7.9848    1.0830 H       1  UNL1        0.0000
     13 C           1.7150    5.1611    2.7237 C.3     1  UNL1        0.0000
     14 H           0.7160    5.5724    2.8339 H       1  UNL1        0.0000
     15 H           1.8471    4.3978    3.4938 H       1  UNL1        0.0000
     16 H           1.7534    4.6679    1.7569 H       1  UNL1        0.0000
@<TRIPOS>BOND
     1    11     9    1
     2    10     9    1
     3    12     9    1
     4     9     1    1
     5    16    13    1
     6    13    14    1
     7    13     1    1
     8    13    15    1
     9     1     2    1
    10     1     5    1
    11     4     2    1
    12     6     5    1
    13     2     3    1
    14     5     7    1
    15     5     8    1
