@<TRIPOS>MOLECULE
2
 23 23 0 0 0
SMALL
GASTEIGER

@<TRIPOS>ATOM
      1 SI          6.4810   11.7464    8.8428 Si      1  UNL1        0.0000
      2 C           4.8420   12.6261    8.5673 C.3     1  UNL1        0.0000
      3 H           4.9224   13.2170    7.6368 H       1  UNL1        0.0000
      4 H           4.7079   13.3635    9.3804 H       1  UNL1        0.0000
      5 C           6.7715   10.5092    7.4079 C.3     1  UNL1        0.0000
      6 H           7.6770    9.9278    7.5497 H       1  UNL1        0.0000
      7 H           6.8542   11.0168    6.4526 H       1  UNL1        0.0000
      8 H           5.9353    9.8162    7.3413 H       1  UNL1        0.0000
      9 C           6.3874   10.7405   10.4712 C.3     1  UNL1        0.0000
     10 H           7.2766   10.1380   10.6269 H       1  UNL1        0.0000
     11 H           5.5289   10.0733   10.4429 H       1  UNL1        0.0000
     12 H           6.2750   11.3864   11.3354 H       1  UNL1        0.0000
     13 C           8.0342   12.8547    8.9695 C.ar    1  UNL1        0.0000
     14 C           9.3009   12.3040    9.1456 C.ar    1  UNL1        0.0000
     15 H           9.4058   11.2298    9.2049 H       1  UNL1        0.0000
     16 C          10.4265   13.1008    9.2472 C.ar    1  UNL1        0.0000
     17 H          11.3993   12.6490    9.3840 H       1  UNL1        0.0000
     18 C          10.3090   14.4788    9.1749 C.ar    1  UNL1        0.0000
     19 H          11.1867   15.1043    9.2545 H       1  UNL1        0.0000
     20 C           9.0597   15.0481    8.9996 C.ar    1  UNL1        0.0000
     21 H           8.9589   16.1230    8.9417 H       1  UNL1        0.0000
     22 C           7.9404   14.2415    8.8987 C.ar    1  UNL1        0.0000
     23 H           6.9708   14.6969    8.7599 H       1  UNL1        0.0000
@<TRIPOS>BOND
     1     7     5    1
     2     8     5    1
     3     5     6    1
     4     5     1    1
     5     3     2    1
     6     2     1    1
     7     2     4    1
     8    23    22    1
     9     1    13    1
    10     1     9    1
    11    22    13   ar
    12    22    20   ar
    13    21    20    1
    14    13    14   ar
    15    20    18   ar
    16    14    15    1
    17    14    16   ar
    18    18    16   ar
    19    18    19    1
    20    16    17    1
    21    11     9    1
    22     9    10    1
    23     9    12    1
