@<TRIPOS>MOLECULE
2
 16 15 0 0 0
SMALL
GASTEIGER

@<TRIPOS>ATOM
      1 SI          5.5683    2.8152    8.2645 Si      1  UNL1        0.0000
      2 C           5.8337    4.1594    6.9624 C.3     1  UNL1        0.0000
      3 H           6.7956    3.9588    6.4609 H       1  UNL1        0.0000
      4 H           5.9980    5.1136    7.4911 H       1  UNL1        0.0000
      5 C           5.3178    1.1165    7.4073 C.3     1  UNL1        0.0000
      6 H           5.0485    0.3482    8.1256 H       1  UNL1        0.0000
      7 H           6.2212    0.7833    6.9050 H       1  UNL1        0.0000
      8 H           4.5204    1.1715    6.6679 H       1  UNL1        0.0000
      9 C           3.9755    3.1693    9.2760 C.3     1  UNL1        0.0000
     10 H           3.7775    2.3731    9.9870 H       1  UNL1        0.0000
     11 H           3.1096    3.2493    8.6226 H       1  UNL1        0.0000
     12 H           4.0526    4.0930    9.8419 H       1  UNL1        0.0000
     13 C           6.9977    2.6009    9.5292 C.3     1  UNL1        0.0000
     14 H           6.7880    1.8089   10.2419 H       1  UNL1        0.0000
     15 H           7.1640    3.5129   10.0947 H       1  UNL1        0.0000
     16 H           7.9302    2.3530    9.0309 H       1  UNL1        0.0000
@<TRIPOS>BOND
     1     3     2    1
     2     8     5    1
     3     7     5    1
     4     2     4    1
     5     2     1    1
     6     5     6    1
     7     5     1    1
     8     1     9    1
     9     1    13    1
    10    11     9    1
    11    16    13    1
    12     9    12    1
    13     9    10    1
    14    13    15    1
    15    13    14    1
