@<TRIPOS>MOLECULE
2
 16 15 0 0 0
SMALL
GASTEIGER

@<TRIPOS>ATOM
      1 SI         12.0013    5.3973    5.4483 Si      1  UNL1        0.0000
      2 C          10.5275    5.0845    4.3079 C.3     1  UNL1        0.0000
      3 H          10.9440    4.9342    3.3026 H       1  UNL1        0.0000
      4 H           9.9724    6.0271    4.2364 H       1  UNL1        0.0000
      5 C          11.6081    5.1244    7.3073 C.3     1  UNL1        0.0000
      6 H          10.6196    5.4999    7.5599 H       1  UNL1        0.0000
      7 H          12.3255    5.6402    7.9392 H       1  UNL1        0.0000
      8 H          11.6427    4.0697    7.5706 H       1  UNL1        0.0000
      9 C          13.4808    4.2493    5.0194 C.3     1  UNL1        0.0000
     10 H          13.2304    3.1997    5.1459 H       1  UNL1        0.0000
     11 H          14.3364    4.4603    5.6541 H       1  UNL1        0.0000
     12 H          13.7958    4.3930    3.9905 H       1  UNL1        0.0000
     13 C          12.6570    7.1929    5.2940 C.3     1  UNL1        0.0000
     14 H          12.9114    7.4334    4.2667 H       1  UNL1        0.0000
     15 H          13.5468    7.3457    5.8968 H       1  UNL1        0.0000
     16 H          11.9115    7.9104    5.6222 H       1  UNL1        0.0000
@<TRIPOS>BOND
     1     3     2    1
     2    12     9    1
     3     4     2    1
     4    14    13    1
     5     2     1    1
     6     9    10    1
     7     9     1    1
     8     9    11    1
     9    13     1    1
    10    13    16    1
    11    13    15    1
    12     1     5    1
    13     5     6    1
    14     5     8    1
    15     5     7    1
