@<TRIPOS>MOLECULE
2
 16 15 0 0 0
SMALL
GASTEIGER

@<TRIPOS>ATOM
      1 SI          8.3176   14.2371    2.2918 Si      1  UNL1        0.0000
      2 C           6.7685   14.4129    3.3477 C.3     1  UNL1        0.0000
      3 H           5.9044   14.4110    2.6713 H       1  UNL1        0.0000
      4 H           6.7769   15.4112    3.7973 H       1  UNL1        0.0000
      5 C           8.7588   15.8043    1.2715 C.3     1  UNL1        0.0000
      6 H           7.9544   16.0724    0.5934 H       1  UNL1        0.0000
      7 H           9.6551   15.6612    0.6755 H       1  UNL1        0.0000
      8 H           8.9324   16.6568    1.9213 H       1  UNL1        0.0000
      9 C           9.8673   13.8386    3.3461 C.3     1  UNL1        0.0000
     10 H          10.7097   13.5582    2.7196 H       1  UNL1        0.0000
     11 H           9.6810   13.0143    4.0340 H       1  UNL1        0.0000
     12 H          10.1767   14.6980    3.9334 H       1  UNL1        0.0000
     13 C           8.1059   12.8192    1.0196 C.3     1  UNL1        0.0000
     14 H           7.7859   11.9015    1.5034 H       1  UNL1        0.0000
     15 H           9.0341   12.6125    0.4958 H       1  UNL1        0.0000
     16 H           7.3610   13.0745    0.2724 H       1  UNL1        0.0000
@<TRIPOS>BOND
     1    16    13    1
     2    15    13    1
     3     6     5    1
     4     7     5    1
     5    13    14    1
     6    13     1    1
     7     5     8    1
     8     5     1    1
     9     1     9    1
    10     1     2    1
    11     3     2    1
    12    10     9    1
    13     9    12    1
    14     9    11    1
    15     2     4    1
