@<TRIPOS>MOLECULE
1
 5 4 0 0 0
SMALL
GASTEIGER

@<TRIPOS>ATOM
      1 C          -0.5162    9.8930    1.6246 C.3     1  UNL1       -0.0127
      2 C          -0.0745   10.6426    0.4483 C.3     1  UNL1       -0.0580
      3 H          -0.1788   11.7150    0.6196 H       1  UNL1        0.0236
      4 H          -0.6634   10.3756   -0.4313 H       1  UNL1        0.0236
      5 H           0.9754   10.4279    0.2429 H       1  UNL1        0.0236
@<TRIPOS>BOND
     1     4     2    1
     2     5     2    1
     3     2     3    1
     4     2     1    1
