@<TRIPOS>MOLECULE
2
 16 15 0 0 0
SMALL
GASTEIGER

@<TRIPOS>ATOM
      1 SI          8.9985    5.0565    5.2164 Si      1  UNL1        0.0000
      2 C           8.1214    6.6907    5.5454 C.3     1  UNL1        0.0000
      3 H           8.8935    7.4403    5.7924 H       1  UNL1        0.0000
      4 H           7.5245    6.5698    6.4685 H       1  UNL1        0.0000
      5 C          10.2444    4.4764    6.5596 C.3     1  UNL1        0.0000
      6 H          11.0160    5.2215    6.7305 H       1  UNL1        0.0000
      7 H          10.7405    3.5522    6.2783 H       1  UNL1        0.0000
      8 H           9.7449    4.3032    7.5081 H       1  UNL1        0.0000
      9 C           7.7048    3.6569    5.0171 C.3     1  UNL1        0.0000
     10 H           7.1006    3.5531    5.9133 H       1  UNL1        0.0000
     11 H           8.1759    2.6974    4.8286 H       1  UNL1        0.0000
     12 H           7.0349    3.8653    4.1865 H       1  UNL1        0.0000
     13 C           9.9887    5.1862    3.5762 C.3     1  UNL1        0.0000
     14 H           9.3607    5.5862    2.7822 H       1  UNL1        0.0000
     15 H          10.3563    4.2176    3.2530 H       1  UNL1        0.0000
     16 H          10.8501    5.8391    3.6833 H       1  UNL1        0.0000
@<TRIPOS>BOND
     1    14    13    1
     2    15    13    1
     3    13    16    1
     4    13     1    1
     5    12     9    1
     6    11     9    1
     7     9     1    1
     8     9    10    1
     9     1     2    1
    10     1     5    1
    11     2     3    1
    12     2     4    1
    13     7     5    1
    14     5     6    1
    15     5     8    1
