@<TRIPOS>MOLECULE
2
 16 15 0 0 0
SMALL
GASTEIGER

@<TRIPOS>ATOM
      1 SI         -4.5358    3.1910    2.0241 Si      1  UNL1        0.0000
      2 C          -3.5861    4.5897    1.1847 C.3     1  UNL1        0.0000
      3 H          -4.2499    5.0126    0.4091 H       1  UNL1        0.0000
      4 H          -2.7456    4.1454    0.6252 H       1  UNL1        0.0000
      5 C          -6.0804    3.8620    2.9424 C.3     1  UNL1        0.0000
      6 H          -5.7948    4.4065    3.8388 H       1  UNL1        0.0000
      7 H          -6.7450    3.0585    3.2452 H       1  UNL1        0.0000
      8 H          -6.6529    4.5404    2.3159 H       1  UNL1        0.0000
      9 C          -5.1578    1.8080    0.8407 C.3     1  UNL1        0.0000
     10 H          -5.8678    2.1990    0.1179 H       1  UNL1        0.0000
     11 H          -5.6513    1.0060    1.3817 H       1  UNL1        0.0000
     12 H          -4.3369    1.3668    0.2827 H       1  UNL1        0.0000
     13 C          -3.4376    2.3191    3.3382 C.3     1  UNL1        0.0000
     14 H          -2.6751    1.6942    2.8822 H       1  UNL1        0.0000
     15 H          -4.0328    1.6797    3.9829 H       1  UNL1        0.0000
     16 H          -2.9374    3.0515    3.9681 H       1  UNL1        0.0000
@<TRIPOS>BOND
     1    10     9    1
     2    12     9    1
     3     3     2    1
     4     4     2    1
     5     9    11    1
     6     9     1    1
     7     2     1    1
     8     1     5    1
     9     1    13    1
    10     8     5    1
    11    14    13    1
    12     5     7    1
    13     5     6    1
    14    13    16    1
    15    13    15    1
