@<TRIPOS>MOLECULE
2
 16 15 0 0 0
SMALL
GASTEIGER

@<TRIPOS>ATOM
      1 SI          4.7799    6.7091    0.9148 Si      1  UNL1        0.0000
      2 C           6.2162    6.2779    2.0591 C.3     1  UNL1        0.0000
      3 H           7.1019    6.0929    1.4294 H       1  UNL1        0.0000
      4 H           5.9748    5.2861    2.4844 H       1  UNL1        0.0000
      5 C           3.9125    5.1978    0.1062 C.3     1  UNL1        0.0000
      6 H           4.5956    4.6448   -0.5319 H       1  UNL1        0.0000
      7 H           3.0640    5.4948   -0.5034 H       1  UNL1        0.0000
      8 H           3.5451    4.5097    0.8623 H       1  UNL1        0.0000
      9 C           5.3479    7.8089   -0.5567 C.3     1  UNL1        0.0000
     10 H           5.7274    8.7741   -0.2369 H       1  UNL1        0.0000
     11 H           4.5234    7.9966   -1.2375 H       1  UNL1        0.0000
     12 H           6.1319    7.3188   -1.1266 H       1  UNL1        0.0000
     13 C           3.4170    7.6441    1.8944 C.3     1  UNL1        0.0000
     14 H           2.8736    6.9595    2.5404 H       1  UNL1        0.0000
     15 H           2.6912    8.1113    1.2355 H       1  UNL1        0.0000
     16 H           3.8390    8.4223    2.5295 H       1  UNL1        0.0000
@<TRIPOS>BOND
     1    11     9    1
     2    12     9    1
     3     9    10    1
     4     9     1    1
     5     6     5    1
     6     7     5    1
     7     5     8    1
     8     5     1    1
     9     1    13    1
    10     1     2    1
    11    15    13    1
    12     3     2    1
    13    13    16    1
    14    13    14    1
    15     2     4    1
