@<TRIPOS>MOLECULE
2
 16 15 0 0 0
SMALL
GASTEIGER

@<TRIPOS>ATOM
      1 SI         -1.7396    9.7746    2.4303 Si      1  UNL1        0.0000
      2 C          -2.1117    8.2302    1.4097 C.3     1  UNL1        0.0000
      3 H          -1.2546    8.0341    0.7464 H       1  UNL1        0.0000
      4 H          -2.9380    8.5004    0.7262 H       1  UNL1        0.0000
      5 C          -2.9182    9.8381    3.9435 C.3     1  UNL1        0.0000
      6 H          -3.9564    9.8768    3.6220 H       1  UNL1        0.0000
      7 H          -2.7385   10.7093    4.5667 H       1  UNL1        0.0000
      8 H          -2.8029    8.9543    4.5697 H       1  UNL1        0.0000
      9 C          -1.9569   11.4331    1.4838 C.3     1  UNL1        0.0000
     10 H          -1.2775   11.4986    0.6392 H       1  UNL1        0.0000
     11 H          -1.7685   12.2917    2.1216 H       1  UNL1        0.0000
     12 H          -2.9671   11.5308    1.0968 H       1  UNL1        0.0000
     13 C           0.0708    9.7964    3.0821 C.3     1  UNL1        0.0000
     14 H           0.2534    9.0147    3.8140 H       1  UNL1        0.0000
     15 H           0.2934   10.7431    3.5646 H       1  UNL1        0.0000
     16 H           0.7860    9.6697    2.2743 H       1  UNL1        0.0000
@<TRIPOS>BOND
     1    10     9    1
     2     4     2    1
     3     3     2    1
     4    12     9    1
     5     2     1    1
     6     9    11    1
     7     9     1    1
     8    16    13    1
     9     1    13    1
    10     1     5    1
    11    13    15    1
    12    13    14    1
    13     6     5    1
    14     5     7    1
    15     5     8    1
