@<TRIPOS>MOLECULE
2
 16 15 0 0 0
SMALL
GASTEIGER

@<TRIPOS>ATOM
      1 SI         -3.7888   13.1389   18.2415 Si      1  UNL1        0.0000
      2 C          -1.9189   12.9655   18.4267 C.3     1  UNL1        0.0000
      3 H          -1.7401   12.1063   19.0854 H       1  UNL1        0.0000
      4 H          -1.5530   13.8348   18.9910 H       1  UNL1        0.0000
      5 C          -4.4907   14.5883   19.2922 C.3     1  UNL1        0.0000
      6 H          -4.3094   14.4237   20.3498 H       1  UNL1        0.0000
      7 H          -5.5621   14.7009   19.1577 H       1  UNL1        0.0000
      8 H          -4.0274   15.5337   19.0270 H       1  UNL1        0.0000
      9 C          -4.4119   13.4394   16.4528 C.3     1  UNL1        0.0000
     10 H          -3.9912   14.3414   16.0210 H       1  UNL1        0.0000
     11 H          -5.4936   13.5424   16.4311 H       1  UNL1        0.0000
     12 H          -4.1551   12.6090   15.8023 H       1  UNL1        0.0000
     13 C          -4.7013   11.5646   18.8483 C.3     1  UNL1        0.0000
     14 H          -4.4543   10.7029   18.2373 H       1  UNL1        0.0000
     15 H          -5.7786   11.6928   18.8106 H       1  UNL1        0.0000
     16 H          -4.4358   11.3272   19.8735 H       1  UNL1        0.0000
@<TRIPOS>BOND
     1    12     9    1
     2    10     9    1
     3    11     9    1
     4     9     1    1
     5    14    13    1
     6     1     2    1
     7     1    13    1
     8     1     5    1
     9     2     4    1
    10     2     3    1
    11    15    13    1
    12    13    16    1
    13     8     5    1
    14     7     5    1
    15     5     6    1
