@<TRIPOS>MOLECULE
2
 16 15 0 0 0
SMALL
GASTEIGER

@<TRIPOS>ATOM
      1 SI          2.0125   11.0419   18.7697 Si      1  UNL1        0.0000
      2 C           0.9162   10.8952   17.2501 C.3     1  UNL1        0.0000
      3 H           0.2507   10.0371   17.4207 H       1  UNL1        0.0000
      4 H           1.5400   10.6107   16.3925 H       1  UNL1        0.0000
      5 C           3.4614   12.2812   18.5379 C.3     1  UNL1        0.0000
      6 H           4.2211   11.8794   17.8752 H       1  UNL1        0.0000
      7 H           3.9423   12.4984   19.4873 H       1  UNL1        0.0000
      8 H           3.1186   13.2214   18.1204 H       1  UNL1        0.0000
      9 C           2.8497    9.3970   19.3054 C.3     1  UNL1        0.0000
     10 H           2.1069    8.6457   19.5555 H       1  UNL1        0.0000
     11 H           3.4866    9.5287   20.1751 H       1  UNL1        0.0000
     12 H           3.4652    8.9915   18.5081 H       1  UNL1        0.0000
     13 C           1.0247   11.6401   20.3001 C.3     1  UNL1        0.0000
     14 H           0.5699   12.6126   20.1340 H       1  UNL1        0.0000
     15 H           1.6619   11.7184   21.1763 H       1  UNL1        0.0000
     16 H           0.2271   10.9447   20.5416 H       1  UNL1        0.0000
@<TRIPOS>BOND
     1     4     2    1
     2     2     3    1
     3     2     1    1
     4     6     5    1
     5     8     5    1
     6    12     9    1
     7     5     1    1
     8     5     7    1
     9     1     9    1
    10     1    13    1
    11     9    10    1
    12     9    11    1
    13    14    13    1
    14    13    16    1
    15    13    15    1
