@<TRIPOS>MOLECULE
2
 15 14 0 0 0
SMALL
GASTEIGER

@<TRIPOS>ATOM
      1 SI          3.2872   11.5042   -2.5903 Si      1  UNL1        0.0000
      2 C           2.6229   12.6984   -0.0588 C.3     1  UNL1        0.0000
      3 C           5.1871   11.3792   -2.5922 C.3     1  UNL1        0.0000
      4 H           5.6516   12.3283   -2.3388 H       1  UNL1        0.0000
      5 H           5.5510   11.0875   -3.5722 H       1  UNL1        0.0000
      6 H           5.5450   10.6414   -1.8790 H       1  UNL1        0.0000
      7 C           2.4608    9.7917   -2.6606 C.3     1  UNL1        0.0000
      8 H           2.7202    9.1834   -1.7983 H       1  UNL1        0.0000
      9 H           2.7719    9.2513   -3.5486 H       1  UNL1        0.0000
     10 H           1.3770    9.8702   -2.6886 H       1  UNL1        0.0000
     11 C           2.6499   12.6555   -3.9650 C.3     1  UNL1        0.0000
     12 H           1.5867   12.8541   -3.8579 H       1  UNL1        0.0000
     13 H           2.8026   12.2073   -4.9415 H       1  UNL1        0.0000
     14 H           3.1618   13.6143   -3.9621 H       1  UNL1        0.0000
     15 O           2.8065   12.1788   -1.1809 O.3     1  UNL1        0.0000
@<TRIPOS>BOND
     1    13    11    1
     2    11    14    1
     3    11    12    1
     4    11     1    1
     5     5     3    1
     6     9     7    1
     7    10     7    1
     8     7     1    1
     9     7     8    1
    10     3     1    1
    11     3     4    1
    12     3     6    1
    13     1    15    1
    14    15     2    1
