@<TRIPOS>MOLECULE
2
 16 15 0 0 0
SMALL
GASTEIGER

@<TRIPOS>ATOM
      1 SI         12.5634    1.5192    4.4653 Si      1  UNL1        0.0000
      2 C          10.8065    1.5416    5.1317 C.3     1  UNL1        0.0000
      3 H          10.8102    1.4218    6.2282 H       1  UNL1        0.0000
      4 H          10.2594    0.6754    4.7374 H       1  UNL1        0.0000
      5 C          13.9031    1.6283    5.8371 C.3     1  UNL1        0.0000
      6 H          13.8891    2.5961    6.3280 H       1  UNL1        0.0000
      7 H          14.8985    1.4861    5.4279 H       1  UNL1        0.0000
      8 H          13.7534    0.8679    6.5971 H       1  UNL1        0.0000
      9 C          12.8310    3.0458    3.3212 C.3     1  UNL1        0.0000
     10 H          12.5852    2.8171    2.2870 H       1  UNL1        0.0000
     11 H          13.8648    3.3799    3.3356 H       1  UNL1        0.0000
     12 H          12.2057    3.8814    3.6426 H       1  UNL1        0.0000
     13 C          12.9874   -0.0219    3.4037 C.3     1  UNL1        0.0000
     14 H          12.8834   -0.9372    3.9772 H       1  UNL1        0.0000
     15 H          14.0067    0.0186    3.0327 H       1  UNL1        0.0000
     16 H          12.3305   -0.0982    2.5424 H       1  UNL1        0.0000
@<TRIPOS>BOND
     1    10     9    1
     2    16    13    1
     3    15    13    1
     4     9    11    1
     5     9    12    1
     6     9     1    1
     7    13    14    1
     8    13     1    1
     9     1     2    1
    10     1     5    1
    11     4     2    1
    12     2     3    1
    13     7     5    1
    14     5     6    1
    15     5     8    1
