@<TRIPOS>MOLECULE
2
 16 15 0 0 0
SMALL
GASTEIGER

@<TRIPOS>ATOM
      1 SI          8.2365    1.6133    1.7559 Si      1  UNL1        0.0000
      2 C           9.2351    3.0331    2.4693 C.3     1  UNL1        0.0000
      3 H           8.7976    3.9738    2.0927 H       1  UNL1        0.0000
      4 H          10.2533    2.9852    2.0499 H       1  UNL1        0.0000
      5 C           8.8650   -0.0873    2.3939 C.3     1  UNL1        0.0000
      6 H           9.9501   -0.1154    2.4275 H       1  UNL1        0.0000
      7 H           8.5417   -0.8844    1.7312 H       1  UNL1        0.0000
      8 H           8.4955   -0.3276    3.3867 H       1  UNL1        0.0000
      9 C           6.3699    1.7736    2.1825 C.3     1  UNL1        0.0000
     10 H           6.2031    2.1473    3.1903 H       1  UNL1        0.0000
     11 H           5.8663    0.8156    2.0996 H       1  UNL1        0.0000
     12 H           5.8746    2.4562    1.4994 H       1  UNL1        0.0000
     13 C           8.3047    1.4884   -0.1621 C.3     1  UNL1        0.0000
     14 H           8.0065    2.4233   -0.6272 H       1  UNL1        0.0000
     15 H           7.6464    0.7121   -0.5405 H       1  UNL1        0.0000
     16 H           9.3093    1.2606   -0.5060 H       1  UNL1        0.0000
@<TRIPOS>BOND
     1    14    13    1
     2    15    13    1
     3    16    13    1
     4    13     1    1
     5    12     9    1
     6     7     5    1
     7     1     9    1
     8     1     5    1
     9     1     2    1
    10     4     2    1
    11     3     2    1
    12    11     9    1
    13     9    10    1
    14     5     6    1
    15     5     8    1
