@<TRIPOS>MOLECULE
1
 14 14 0 0 0
SMALL
GASTEIGER

@<TRIPOS>ATOM
      1 C          10.7394    7.2984   13.1911 C.3     1  UNL1       -0.0237
      2 H          11.6225    6.6915   12.9543 H       1  UNL1        0.0316
      3 H          10.9222    8.3400   12.8928 H       1  UNL1        0.0316
      4 C          10.4710    7.2325   14.6367 C.ar    1  UNL1       -0.0470
      5 C           9.9890    8.3417   15.3437 C.ar    1  UNL1       -0.0586
      6 H           9.8056    9.2685   14.8148 H       1  UNL1        0.0620
      7 C           9.7985    8.2955   16.7101 C.ar    1  UNL1       -0.0615
      8 H           9.4349    9.1720   17.2276 H       1  UNL1        0.0618
      9 C          10.0946    7.1449   17.4210 C.ar    1  UNL1       -0.0617
     10 H           9.9627    7.1163   18.4922 H       1  UNL1        0.0618
     11 C          10.5755    6.0367   16.7422 C.ar    1  UNL1       -0.0615
     12 H          10.8207    5.1353   17.2858 H       1  UNL1        0.0618
     13 C          10.7601    6.0770   15.3758 C.ar    1  UNL1       -0.0586
     14 H          11.1632    5.2135   14.8676 H       1  UNL1        0.0620
@<TRIPOS>BOND
     1     3     1    1
     2     2     1    1
     3     1     4    1
     4     4     5   ar
     5     4    13   ar
     6     6     5    1
     7    14    13    1
     8     5     7   ar
     9    13    11   ar
    10     7     8    1
    11     7     9   ar
    12    11    12    1
    13    11     9   ar
    14     9    10    1
