@<TRIPOS>MOLECULE
1
 14 14 0 0 0
SMALL
GASTEIGER

@<TRIPOS>ATOM
      1 C           9.9289    4.7079   11.1938 C.3     1  UNL1       -0.0237
      2 H           9.1750    4.1062   10.6763 H       1  UNL1        0.0316
      3 H          10.7321    4.9457   10.4855 H       1  UNL1        0.0316
      4 C          10.4663    3.9553   12.3431 C.ar    1  UNL1       -0.0470
      5 C           9.6006    3.2957   13.2279 C.ar    1  UNL1       -0.0586
      6 H           8.5341    3.3439   13.0447 H       1  UNL1        0.0620
      7 C          10.0860    2.5806   14.3041 C.ar    1  UNL1       -0.0615
      8 H           9.3988    2.0772   14.9699 H       1  UNL1        0.0618
      9 C          11.4514    2.4989   14.5354 C.ar    1  UNL1       -0.0617
     10 H          11.8303    1.9379   15.3763 H       1  UNL1        0.0618
     11 C          12.3238    3.1427   13.6733 C.ar    1  UNL1       -0.0615
     12 H          13.3897    3.0821   13.8414 H       1  UNL1        0.0618
     13 C          11.8403    3.8572   12.5926 C.ar    1  UNL1       -0.0586
     14 H          12.5371    4.3397   11.9189 H       1  UNL1        0.0620
@<TRIPOS>BOND
     1     3     1    1
     2     2     1    1
     3     1     4    1
     4    14    13    1
     5     4    13   ar
     6     4     5   ar
     7    13    11   ar
     8     6     5    1
     9     5     7   ar
    10    11    12    1
    11    11     9   ar
    12     7     9   ar
    13     7     8    1
    14     9    10    1
