@<TRIPOS>MOLECULE
1
 14 14 0 0 0
SMALL
GASTEIGER

@<TRIPOS>ATOM
      1 C           7.7433   14.7098    4.5943 C.3     1  UNL1       -0.0237
      2 H           7.7308   15.6734    5.1138 H       1  UNL1        0.0316
      3 H           7.1487   13.9909    5.1683 H       1  UNL1        0.0316
      4 C           9.1245   14.2169    4.4508 C.ar    1  UNL1       -0.0470
      5 C          10.2379   15.0453    4.6402 C.ar    1  UNL1       -0.0586
      6 H          10.0853   16.0840    4.8987 H       1  UNL1        0.0620
      7 C          11.5251   14.5571    4.5097 C.ar    1  UNL1       -0.0615
      8 H          12.3664   15.2186    4.6628 H       1  UNL1        0.0618
      9 C          11.7430   13.2255    4.1946 C.ar    1  UNL1       -0.0617
     10 H          12.7486   12.8447    4.0985 H       1  UNL1        0.0618
     11 C          10.6545   12.3852    4.0141 C.ar    1  UNL1       -0.0615
     12 H          10.8175   11.3421    3.7806 H       1  UNL1        0.0618
     13 C           9.3677   12.8691    4.1423 C.ar    1  UNL1       -0.0586
     14 H           8.5206   12.2018    4.0269 H       1  UNL1        0.0620
@<TRIPOS>BOND
     1    12    11    1
     2    11    13   ar
     3    11     9   ar
     4    14    13    1
     5    10     9    1
     6    13     4   ar
     7     9     7   ar
     8     4     1    1
     9     4     5   ar
    10     7     5   ar
    11     7     8    1
    12     1     2    1
    13     1     3    1
    14     5     6    1
