@<TRIPOS>MOLECULE
1
 14 14 0 0 0
SMALL
GASTEIGER

@<TRIPOS>ATOM
      1 C           4.7997   15.2494    3.0023 C.3     1  UNL1       -0.0237
      2 H           4.1820   15.0560    2.1171 H       1  UNL1        0.0316
      3 H           4.4168   14.6650    3.8452 H       1  UNL1        0.0316
      4 C           4.8157   16.6795    3.3224 C.ar    1  UNL1       -0.0470
      5 C           4.7116   17.6571    2.3206 C.ar    1  UNL1       -0.0586
      6 H           4.5768   17.3471    1.2909 H       1  UNL1        0.0620
      7 C           4.7325   19.0027    2.6283 C.ar    1  UNL1       -0.0615
      8 H           4.6446   19.7332    1.8367 H       1  UNL1        0.0618
      9 C           4.8451   19.4227    3.9441 C.ar    1  UNL1       -0.0617
     10 H           4.8500   20.4754    4.1831 H       1  UNL1        0.0618
     11 C           4.9348   18.4754    4.9519 C.ar    1  UNL1       -0.0615
     12 H           5.0082   18.7920    5.9827 H       1  UNL1        0.0618
     13 C           4.9218   17.1284    4.6492 C.ar    1  UNL1       -0.0586
     14 H           4.9754   16.3991    5.4480 H       1  UNL1        0.0620
@<TRIPOS>BOND
     1     6     5    1
     2     8     7    1
     3     2     1    1
     4     5     7   ar
     5     5     4   ar
     6     7     9   ar
     7     1     4    1
     8     1     3    1
     9     4    13   ar
    10     9    10    1
    11     9    11   ar
    12    13    11   ar
    13    13    14    1
    14    11    12    1
