@<TRIPOS>MOLECULE
1
 14 14 0 0 0
SMALL
GASTEIGER

@<TRIPOS>ATOM
      1 C          -0.1267   12.8293   11.1781 C.3     1  UNL1       -0.0237
      2 H           0.4275   13.7698   11.2842 H       1  UNL1        0.0316
      3 H          -1.1199   12.9828   11.6207 H       1  UNL1        0.0316
      4 C           0.5694   11.7594   11.9296 C.ar    1  UNL1       -0.0470
      5 C          -0.0238   10.5018   12.0961 C.ar    1  UNL1       -0.0586
      6 H          -0.9902   10.3136   11.6471 H       1  UNL1        0.0620
      7 C           0.5969    9.5099   12.8301 C.ar    1  UNL1       -0.0615
      8 H           0.1138    8.5498   12.9500 H       1  UNL1        0.0618
      9 C           1.8334    9.7367   13.4162 C.ar    1  UNL1       -0.0617
     10 H           2.3183    8.9591   13.9876 H       1  UNL1        0.0618
     11 C           2.4335   10.9754   13.2677 C.ar    1  UNL1       -0.0615
     12 H           3.3910   11.1689   13.7310 H       1  UNL1        0.0618
     13 C           1.8066   11.9732   12.5449 C.ar    1  UNL1       -0.0586
     14 H           2.2769   12.9445   12.4653 H       1  UNL1        0.0620
@<TRIPOS>BOND
     1     1     2    1
     2     1     3    1
     3     1     4    1
     4     6     5    1
     5     4     5   ar
     6     4    13   ar
     7     5     7   ar
     8    14    13    1
     9    13    11   ar
    10     7     8    1
    11     7     9   ar
    12    11     9   ar
    13    11    12    1
    14     9    10    1
