@<TRIPOS>MOLECULE
2
 10 9 0 0 0
SMALL
GASTEIGER

@<TRIPOS>ATOM
      1 N           5.6184    0.8417   12.6771 N.3     1  UNL1       -0.2977
      2 C           4.5331    1.3998   13.1333 C.3     1  UNL1        0.0879
      3 C           5.7190    0.1553   11.4072 C.3     1  UNL1       -0.0123
      4 H           4.7416    0.0993   10.9364 H       1  UNL1        0.0391
      5 H           6.1036   -0.8574   11.5599 H       1  UNL1        0.0391
      6 H           6.4045    0.6880   10.7405 H       1  UNL1        0.0391
      7 C           6.8697    0.8874   13.4026 C.3     1  UNL1       -0.0123
      8 H           6.7060    1.3492   14.3717 H       1  UNL1        0.0391
      9 H           7.6100    1.4696   12.8445 H       1  UNL1        0.0391
     10 H           7.2603   -0.1247   13.5460 H       1  UNL1        0.0391
@<TRIPOS>BOND
     1     6     3    1
     2     4     3    1
     3     3     5    1
     4     3     1    1
     5     1     2    1
     6     1     7    1
     7     9     7    1
     8     7    10    1
     9     7     8    1
