@<TRIPOS>MOLECULE
2
 16 15 0 0 0
SMALL
GASTEIGER

@<TRIPOS>ATOM
      1 SI          7.1110    2.1878    7.5972 Si      1  UNL1        0.0000
      2 C           7.2323    1.5262    5.8324 C.3     1  UNL1        0.0000
      3 H           7.4013    0.4435    5.8835 H       1  UNL1        0.0000
      4 H           8.1324    1.9420    5.3628 H       1  UNL1        0.0000
      5 C           7.4661    4.0681    7.6357 C.3     1  UNL1        0.0000
      6 H           8.4955    4.2724    7.3590 H       1  UNL1        0.0000
      7 H           7.3089    4.4777    8.6284 H       1  UNL1        0.0000
      8 H           6.8275    4.6169    6.9504 H       1  UNL1        0.0000
      9 C           8.3188    1.3658    8.8381 C.3     1  UNL1        0.0000
     10 H           8.1508    0.2950    8.9003 H       1  UNL1        0.0000
     11 H           8.2085    1.7734    9.8382 H       1  UNL1        0.0000
     12 H           9.3501    1.5163    8.5355 H       1  UNL1        0.0000
     13 C           5.3380    1.8707    8.2607 C.3     1  UNL1        0.0000
     14 H           4.5825    2.3411    7.6320 H       1  UNL1        0.0000
     15 H           5.2163    2.2601    9.2671 H       1  UNL1        0.0000
     16 H           5.1245    0.8060    8.2983 H       1  UNL1        0.0000
@<TRIPOS>BOND
     1     4     2    1
     2     2     3    1
     3     2     1    1
     4     8     5    1
     5     6     5    1
     6     1     5    1
     7     1    13    1
     8     1     9    1
     9    14    13    1
    10     5     7    1
    11    13    16    1
    12    13    15    1
    13    12     9    1
    14     9    10    1
    15     9    11    1
