@<TRIPOS>MOLECULE
2
 16 15 0 0 0
SMALL
GASTEIGER

@<TRIPOS>ATOM
      1 SI          0.8678    4.1824   12.5158 Si      1  UNL1        0.0000
      2 C           0.8222    4.6615   10.6887 C.3     1  UNL1        0.0000
      3 H           1.6898    4.1869   10.2058 H       1  UNL1        0.0000
      4 H           1.0316    5.7408   10.6307 H       1  UNL1        0.0000
      5 C          -0.8744    4.3997   13.3065 C.3     1  UNL1        0.0000
      6 H          -0.9717    5.3676   13.7908 H       1  UNL1        0.0000
      7 H          -1.0685    3.6442   14.0612 H       1  UNL1        0.0000
      8 H          -1.6582    4.3239   12.5515 H       1  UNL1        0.0000
      9 C           1.4371    2.3684   12.7572 C.3     1  UNL1        0.0000
     10 H           0.8465    1.6744   12.1676 H       1  UNL1        0.0000
     11 H           1.3590    2.0647   13.7967 H       1  UNL1        0.0000
     12 H           2.4743    2.2464   12.4601 H       1  UNL1        0.0000
     13 C           2.0588    5.2584   13.5699 C.3     1  UNL1        0.0000
     14 H           3.0871    5.1391   13.2434 H       1  UNL1        0.0000
     15 H           2.0173    4.9941   14.6224 H       1  UNL1        0.0000
     16 H           1.8127    6.3132   13.4873 H       1  UNL1        0.0000
@<TRIPOS>BOND
     1     3     2    1
     2     4     2    1
     3     2     1    1
     4    10     9    1
     5    12     9    1
     6     1     9    1
     7     1     5    1
     8     1    13    1
     9     8     5    1
    10     9    11    1
    11    14    13    1
    12     5     6    1
    13     5     7    1
    14    16    13    1
    15    13    15    1
