@<TRIPOS>MOLECULE
2
 16 15 0 0 0
SMALL
GASTEIGER

@<TRIPOS>ATOM
      1 SI          6.4613   -0.1579    1.8106 Si      1  UNL1        0.0000
      2 C           4.9494    0.6845    2.5540 C.3     1  UNL1        0.0000
      3 H           4.1727   -0.0651    2.7506 H       1  UNL1        0.0000
      4 H           4.5261    1.3613    1.8028 H       1  UNL1        0.0000
      5 C           7.8509    1.1497    1.6233 C.3     1  UNL1        0.0000
      6 H           7.5257    1.9705    0.9900 H       1  UNL1        0.0000
      7 H           8.7394    0.7253    1.1667 H       1  UNL1        0.0000
      8 H           8.1423    1.5627    2.5889 H       1  UNL1        0.0000
      9 C           7.0860   -1.5274    3.0002 C.3     1  UNL1        0.0000
     10 H           7.3486   -1.1182    3.9726 H       1  UNL1        0.0000
     11 H           7.9693   -2.0167    2.6033 H       1  UNL1        0.0000
     12 H           6.3321   -2.2943    3.1504 H       1  UNL1        0.0000
     13 C           6.1990   -0.9751    0.0973 C.3     1  UNL1        0.0000
     14 H           5.4385   -1.7487    0.1414 H       1  UNL1        0.0000
     15 H           7.1104   -1.4327   -0.2752 H       1  UNL1        0.0000
     16 H           5.8765   -0.2428   -0.6362 H       1  UNL1        0.0000
@<TRIPOS>BOND
     1    16    13    1
     2    15    13    1
     3    13    14    1
     4    13     1    1
     5     6     5    1
     6     7     5    1
     7     5     1    1
     8     5     8    1
     9     4     2    1
    10     1     2    1
    11     1     9    1
    12     2     3    1
    13    11     9    1
    14     9    12    1
    15     9    10    1
