@<TRIPOS>MOLECULE
2
 16 15 0 0 0
SMALL
GASTEIGER

@<TRIPOS>ATOM
      1 SI          0.5656    6.4406    6.9446 Si      1  UNL1        0.0000
      2 C          -0.9544    5.5256    7.5883 C.3     1  UNL1        0.0000
      3 H          -1.2686    4.8489    6.7759 H       1  UNL1        0.0000
      4 H          -1.7740    6.2615    7.6820 H       1  UNL1        0.0000
      5 C           0.3204    7.2167    5.2041 C.3     1  UNL1        0.0000
      6 H           0.0553    6.4590    4.4727 H       1  UNL1        0.0000
      7 H           1.2225    7.7080    4.8518 H       1  UNL1        0.0000
      8 H          -0.4740    7.9575    5.2075 H       1  UNL1        0.0000
      9 C           2.0457    5.2327    6.8158 C.3     1  UNL1        0.0000
     10 H           2.2935    4.8106    7.7863 H       1  UNL1        0.0000
     11 H           2.9331    5.7283    6.4351 H       1  UNL1        0.0000
     12 H           1.8208    4.4107    6.1426 H       1  UNL1        0.0000
     13 C           1.0639    7.8871    8.1026 C.3     1  UNL1        0.0000
     14 H           0.2424    8.5819    8.2506 H       1  UNL1        0.0000
     15 H           1.8911    8.4509    7.6834 H       1  UNL1        0.0000
     16 H           1.3782    7.5264    9.0774 H       1  UNL1        0.0000
@<TRIPOS>BOND
     1     6     5    1
     2     7     5    1
     3     5     8    1
     4     5     1    1
     5    12     9    1
     6    11     9    1
     7     3     2    1
     8     9     1    1
     9     9    10    1
    10     1     2    1
    11     1    13    1
    12     2     4    1
    13    15    13    1
    14    13    14    1
    15    13    16    1
