@<TRIPOS>MOLECULE
2
 15 14 0 0 0
SMALL
GASTEIGER

@<TRIPOS>ATOM
      1 SI          1.2502    2.0044   13.0297 Si      1  UNL1        0.0000
      2 C           1.4630    2.3155   11.1981 C.3     1  UNL1        0.0000
      3 C           2.9209    1.8955   13.9595 C.3     1  UNL1        0.0000
      4 C           0.2519    0.3972   13.4115 C.3     1  UNL1        0.0000
      5 C           0.1953    3.4069   13.8118 C.3     1  UNL1        0.0000
      6 H           0.4845    2.3342   10.6907 H       1  UNL1        0.0000
      7 H           3.1908    0.8711   14.1985 H       1  UNL1        0.0000
      8 H           2.8887    2.4465   14.8945 H       1  UNL1        0.0000
      9 H           3.7164    2.3188   13.3535 H       1  UNL1        0.0000
     10 H          -0.7361    0.4351   12.9601 H       1  UNL1        0.0000
     11 H           0.1128    0.2756   14.4816 H       1  UNL1        0.0000
     12 H           0.7416   -0.5018   13.0459 H       1  UNL1        0.0000
     13 H           0.0919    3.2597   14.8828 H       1  UNL1        0.0000
     14 H          -0.8036    3.4320   13.3866 H       1  UNL1        0.0000
     15 H           0.6459    4.3804   13.6497 H       1  UNL1        0.0000
@<TRIPOS>BOND
     1     6     2    1
     2     2     1    1
     3    10     4    1
     4     1     4    1
     5     1     5    1
     6     1     3    1
     7    12     4    1
     8     9     3    1
     9    14     5    1
    10     4    11    1
    11    15     5    1
    12     5    13    1
    13     3     7    1
    14     3     8    1
