@<TRIPOS>MOLECULE
2
 16 15 0 0 0
SMALL
GASTEIGER

@<TRIPOS>ATOM
      1 SI          3.0769    4.2665    8.2132 Si      1  UNL1        0.0000
      2 C           3.7225    4.0388    6.4544 C.3     1  UNL1        0.0000
      3 C           1.2231    3.7732    8.3552 C.3     1  UNL1        0.0000
      4 C           4.0838    3.2382    9.4761 C.3     1  UNL1        0.0000
      5 C           3.1899    6.0962    8.7818 C.3     1  UNL1        0.0000
      6 H           3.5201    4.9288    5.8496 H       1  UNL1        0.0000
      7 H           0.8992    3.2033    7.4840 H       1  UNL1        0.0000
      8 H           0.5909    4.6542    8.4318 H       1  UNL1        0.0000
      9 H           1.0412    3.1617    9.2354 H       1  UNL1        0.0000
     10 H           5.1370    3.5020    9.4390 H       1  UNL1        0.0000
     11 H           3.7381    3.4210   10.4897 H       1  UNL1        0.0000
     12 H           4.0069    2.1708    9.2902 H       1  UNL1        0.0000
     13 H           4.2189    6.4416    8.7892 H       1  UNL1        0.0000
     14 H           2.6282    6.7535    8.1245 H       1  UNL1        0.0000
     15 H           2.7959    6.2202    9.7858 H       1  UNL1        0.0000
     16 H           4.8110    3.9049    6.4737 H       1  UNL1        0.0000
@<TRIPOS>BOND
     1     6     2    1
     2     2    16    1
     3     2     1    1
     4     7     3    1
     5    14     5    1
     6     1     3    1
     7     1     5    1
     8     1     4    1
     9     3     8    1
    10     3     9    1
    11     5    13    1
    12     5    15    1
    13    12     4    1
    14    10     4    1
    15     4    11    1
