@<TRIPOS>MOLECULE
1
 11 11 0 0 0
SMALL
GASTEIGER

@<TRIPOS>ATOM
      1 C           3.2806    0.8018    6.9184 C.ar    1  UNL1       -0.0179
      2 C           2.2953    0.3983    7.8143 C.ar    1  UNL1       -0.0540
      3 C           2.5852   -0.4387    8.8825 C.ar    1  UNL1       -0.0612
      4 C           3.8799   -0.8869    9.0798 C.ar    1  UNL1       -0.0617
      5 C           4.8785   -0.4905    8.2054 C.ar    1  UNL1       -0.0612
      6 C           4.5770    0.3451    7.1405 C.ar    1  UNL1       -0.0540
      7 H           1.2699    0.7276    7.6811 H       1  UNL1        0.0624
      8 H           1.7971   -0.7380    9.5613 H       1  UNL1        0.0618
      9 H           4.1107   -1.5381    9.9113 H       1  UNL1        0.0618
     10 H           5.8940   -0.8315    8.3569 H       1  UNL1        0.0618
     11 H           5.3732    0.6447    6.4640 H       1  UNL1        0.0624
@<TRIPOS>BOND
     1    11     6    1
     2     1     6   ar
     3     1     2   ar
     4     6     5   ar
     5     7     2    1
     6     2     3   ar
     7     5    10    1
     8     5     4   ar
     9     3     4   ar
    10     3     8    1
    11     4     9    1
