@<TRIPOS>MOLECULE
2
 16 15 0 0 0
SMALL
GASTEIGER

@<TRIPOS>ATOM
      1 SI          7.2614   16.2294    3.0247 Si      1  UNL1        0.0000
      2 C           8.9019   16.9152    3.6423 C.3     1  UNL1        0.0000
      3 H           8.9589   17.9847    3.3976 H       1  UNL1        0.0000
      4 H           9.7196   16.4455    3.0806 H       1  UNL1        0.0000
      5 C           5.8464   17.2140    3.8593 C.3     1  UNL1        0.0000
      6 H           6.0560   17.3563    4.9167 H       1  UNL1        0.0000
      7 H           4.8963   16.6960    3.7782 H       1  UNL1        0.0000
      8 H           5.7262   18.1943    3.4086 H       1  UNL1        0.0000
      9 C           7.1002   14.3820    3.5072 C.3     1  UNL1        0.0000
     10 H           7.3648   14.2275    4.5520 H       1  UNL1        0.0000
     11 H           7.7527   13.7587    2.9029 H       1  UNL1        0.0000
     12 H           6.0850   14.0216    3.3701 H       1  UNL1        0.0000
     13 C           6.9698   16.3341    1.1307 C.3     1  UNL1        0.0000
     14 H           7.0220   17.3609    0.7825 H       1  UNL1        0.0000
     15 H           5.9968   15.9420    0.8507 H       1  UNL1        0.0000
     16 H           7.7198   15.7680    0.5872 H       1  UNL1        0.0000
@<TRIPOS>BOND
     1    16    13    1
     2    14    13    1
     3    15    13    1
     4    13     1    1
     5    11     9    1
     6     1     9    1
     7     1     2    1
     8     1     5    1
     9     4     2    1
    10    12     9    1
    11     3     2    1
    12     8     5    1
    13     9    10    1
    14     7     5    1
    15     5     6    1
