@<TRIPOS>MOLECULE
2
 16 15 0 0 0
SMALL
GASTEIGER

@<TRIPOS>ATOM
      1 SI         12.4729   18.1470    5.7196 Si      1  UNL1        0.0000
      2 C          11.5268   16.7903    6.6204 C.3     1  UNL1        0.0000
      3 H          11.5755   16.9835    7.6979 H       1  UNL1        0.0000
      4 H          12.0443   15.8351    6.4581 H       1  UNL1        0.0000
      5 C          11.3771   19.7140    5.5688 C.3     1  UNL1        0.0000
      6 H          10.4207   19.4798    5.1018 H       1  UNL1        0.0000
      7 H          11.8563   20.4826    4.9710 H       1  UNL1        0.0000
      8 H          11.1666   20.1467    6.5417 H       1  UNL1        0.0000
      9 C          14.1070   18.7026    6.5632 C.3     1  UNL1        0.0000
     10 H          13.9162   19.1304    7.5427 H       1  UNL1        0.0000
     11 H          14.6271   19.4534    5.9765 H       1  UNL1        0.0000
     12 H          14.7842   17.8651    6.6985 H       1  UNL1        0.0000
     13 C          12.9212   17.5393    3.9603 C.3     1  UNL1        0.0000
     14 H          12.0318   17.2319    3.4186 H       1  UNL1        0.0000
     15 H          13.5924   16.6875    4.0016 H       1  UNL1        0.0000
     16 H          13.4109   18.3150    3.3806 H       1  UNL1        0.0000
@<TRIPOS>BOND
     1    16    13    1
     2    14    13    1
     3    13    15    1
     4    13     1    1
     5     7     5    1
     6     6     5    1
     7     5     1    1
     8     5     8    1
     9     1     9    1
    10     1     2    1
    11    11     9    1
    12     4     2    1
    13     9    12    1
    14     9    10    1
    15     2     3    1
