@<TRIPOS>MOLECULE
3
 25 25 0 0 0
SMALL
GASTEIGER

@<TRIPOS>ATOM
      1 C          12.5109   10.2852   12.6728 C.2     1  UNL1       -0.0658
      2 C          12.1030    8.9349   12.4247 C.3     1  UNL1        0.0052
      3 C          12.9319    8.4104   11.3695 C.3     1  UNL1       -0.0053
      4 C          13.8861    9.4320   11.0281 C.3     1  UNL1        0.0052
      5 C          13.6111   10.5812   11.8399 C.2     1  UNL1       -0.0658
      6 C          11.7989   11.2295   13.5872 C.3     1  UNL1       -0.0430
      7 H          12.0603   11.0212   14.6267 H       1  UNL1        0.0275
      8 H          10.7207   11.1176   13.4761 H       1  UNL1        0.0275
      9 H          12.0694   12.2606   13.3710 H       1  UNL1        0.0275
     10 C          10.8649    8.2913   12.9700 C.3     1  UNL1       -0.0545
     11 H          10.0031    8.5411   12.3466 H       1  UNL1        0.0239
     12 H          10.6722    8.6372   13.9832 H       1  UNL1        0.0239
     13 H          10.9695    7.2077   12.9892 H       1  UNL1        0.0239
     14 C          12.6694    7.1564   10.5875 C.3     1  UNL1       -0.0574
     15 H          12.2637    6.3778   11.2310 H       1  UNL1        0.0236
     16 H          13.5848    6.7810   10.1339 H       1  UNL1        0.0236
     17 H          11.9484    7.3550    9.7919 H       1  UNL1        0.0236
     18 C          14.7537    9.4064    9.8013 C.3     1  UNL1       -0.0545
     19 H          15.2384    8.4381    9.6798 H       1  UNL1        0.0239
     20 H          15.5206   10.1774    9.8389 H       1  UNL1        0.0239
     21 H          14.1405    9.5874    8.9160 H       1  UNL1        0.0239
     22 C          14.2613   11.9240   11.6924 C.3     1  UNL1       -0.0430
     23 H          14.2744   12.4596   12.6402 H       1  UNL1        0.0275
     24 H          13.7083   12.5253   10.9667 H       1  UNL1        0.0275
     25 H          15.2884   11.8340   11.3407 H       1  UNL1        0.0275
@<TRIPOS>BOND
     1    21    18    1
     2    19    18    1
     3    17    14    1
     4    18    20    1
     5    18     4    1
     6    16    14    1
     7    14    15    1
     8    14     3    1
     9    24    22    1
    10     4     3    1
    11     4     5    1
    12    25    22    1
    13     3     2    1
    14    22     5    1
    15    22    23    1
    16     5     1    2
    17    11    10    1
    18     2     1    1
    19     2    10    1
    20     1     6    1
    21    10    13    1
    22    10    12    1
    23     9     6    1
    24     8     6    1
    25     6     7    1
