@<TRIPOS>MOLECULE
2
 16 15 0 0 0
SMALL
GASTEIGER

@<TRIPOS>ATOM
      1 SI         -1.1564    1.6352    6.8787 Si      1  UNL1        0.0000
      2 C          -0.1059    2.6738    5.7018 C.3     1  UNL1        0.0000
      3 C          -2.9022    2.3754    7.1792 C.3     1  UNL1        0.0000
      4 C          -0.3223    1.5104    8.6019 C.3     1  UNL1        0.0000
      5 C          -1.4212   -0.1615    6.2697 C.3     1  UNL1        0.0000
      6 H           0.7995    2.9789    6.2367 H       1  UNL1        0.0000
      7 H           0.2404    2.0171    4.8810 H       1  UNL1        0.0000
      8 H          -2.8689    3.2438    7.8303 H       1  UNL1        0.0000
      9 H          -3.5522    1.6448    7.6517 H       1  UNL1        0.0000
     10 H          -3.3677    2.6749    6.2454 H       1  UNL1        0.0000
     11 H           0.6407    1.0131    8.5406 H       1  UNL1        0.0000
     12 H          -0.9384    0.9451    9.2941 H       1  UNL1        0.0000
     13 H          -0.1563    2.4902    9.0378 H       1  UNL1        0.0000
     14 H          -0.4761   -0.6820    6.1449 H       1  UNL1        0.0000
     15 H          -1.9329   -0.1810    5.3130 H       1  UNL1        0.0000
     16 H          -2.0180   -0.7336    6.9744 H       1  UNL1        0.0000
@<TRIPOS>BOND
     1     7     2    1
     2    15     5    1
     3     2     6    1
     4     2     1    1
     5    14     5    1
     6    10     3    1
     7     5     1    1
     8     5    16    1
     9     1     3    1
    10     1     4    1
    11     3     9    1
    12     3     8    1
    13    11     4    1
    14     4    13    1
    15     4    12    1
