@<TRIPOS>MOLECULE
1
 16 15 0 0 0
SMALL
GASTEIGER

@<TRIPOS>ATOM
      1 C          -1.9785    2.4960    3.1258 C.3     1  UNL1        0.0000
      2 SI         -0.9136    1.4998    1.9315 Si      1  UNL1        0.0000
      3 H          -2.8493    2.8664    2.5678 H       1  UNL1        0.0000
      4 H          -2.4041    1.8036    3.8662 H       1  UNL1        0.0000
      5 C           0.7689    2.3820    1.5945 C.3     1  UNL1        0.0000
      6 C          -1.7219    1.2765    0.2076 C.3     1  UNL1        0.0000
      7 C          -0.4554   -0.2471    2.5651 C.3     1  UNL1        0.0000
      8 H           0.6549    3.2414    0.9378 H       1  UNL1        0.0000
      9 H           1.4743    1.7091    1.1150 H       1  UNL1        0.0000
     10 H           1.2285    2.7250    2.5214 H       1  UNL1        0.0000
     11 H          -2.6301    0.6863    0.2778 H       1  UNL1        0.0000
     12 H          -1.0544    0.7718   -0.4841 H       1  UNL1        0.0000
     13 H          -1.9883    2.2328   -0.2328 H       1  UNL1        0.0000
     14 H          -1.3438   -0.8490    2.7290 H       1  UNL1        0.0000
     15 H           0.0838   -0.1989    3.5059 H       1  UNL1        0.0000
     16 H           0.1714   -0.7761    1.8529 H       1  UNL1        0.0000
@<TRIPOS>BOND
     1    12     6    1
     2    13     6    1
     3     6    11    1
     4     6     2    1
     5     8     5    1
     6     9     5    1
     7     5     2    1
     8     5    10    1
     9    16     7    1
    10     2     7    1
    11     2     1    1
    12     7    14    1
    13     7    15    1
    14     3     1    1
    15     1     4    1
