@<TRIPOS>MOLECULE
2
 40 42 0 0 0
SMALL
GASTEIGER

@<TRIPOS>ATOM
      1 SI         10.7464    7.0808   21.9619 Si      1  UNL1        0.0000
      2 C           8.4108    7.8993   20.4362 C.3     1  UNL1        0.0000
      3 O           9.7353    7.5596   20.8027 O.3     1  UNL1        0.0000
      4 C          12.3902    6.8381   21.0205 C.3     1  UNL1        0.0000
      5 C           7.4650    8.2462   21.4582 C.ar    1  UNL1        0.0000
      6 C           6.1364    8.4825   21.0314 C.ar    1  UNL1        0.0000
      7 C           5.1523    8.8350   21.9244 C.ar    1  UNL1        0.0000
      8 C           5.4374    8.9530   23.2805 C.ar    1  UNL1        0.0000
      9 C           6.7315    8.7284   23.7207 C.ar    1  UNL1        0.0000
     10 C           7.7293    8.3855   22.8322 C.ar    1  UNL1        0.0000
     11 C          11.0952    8.3982   23.2962 C.ar    1  UNL1        0.0000
     12 C          11.3764    9.7144   22.9378 C.ar    1  UNL1        0.0000
     13 C          11.6417   10.6792   23.8921 C.ar    1  UNL1        0.0000
     14 C          11.6385   10.3427   25.2350 C.ar    1  UNL1        0.0000
     15 C          11.3715    9.0374   25.6120 C.ar    1  UNL1        0.0000
     16 C          11.1035    8.0789   24.6516 C.ar    1  UNL1        0.0000
     17 C          10.2401    5.4686   22.8265 C.ar    1  UNL1        0.0000
     18 C           8.9069    5.1283   23.0449 C.ar    1  UNL1        0.0000
     19 C           8.5613    3.9526   23.6872 C.ar    1  UNL1        0.0000
     20 C           9.5477    3.0882   24.1299 C.ar    1  UNL1        0.0000
     21 C          10.8796    3.4099   23.9271 C.ar    1  UNL1        0.0000
     22 C          11.2167    4.5861   23.2832 C.ar    1  UNL1        0.0000
     23 H          13.2313    6.9632   21.6942 H       1  UNL1        0.0000
     24 H          12.4651    5.8500   20.5786 H       1  UNL1        0.0000
     25 H          12.4980    7.5674   20.2232 H       1  UNL1        0.0000
     26 H           5.9085    8.3901   19.9708 H       1  UNL1        0.0000
     27 H           4.1466    9.0112   21.5712 H       1  UNL1        0.0000
     28 H           4.6599    9.2171   23.9814 H       1  UNL1        0.0000
     29 H           6.9712    8.8248   24.7706 H       1  UNL1        0.0000
     30 H           8.7306    8.2374   23.2042 H       1  UNL1        0.0000
     31 H          11.3856    9.9821   21.8909 H       1  UNL1        0.0000
     32 H          11.8516   11.6959   23.5900 H       1  UNL1        0.0000
     33 H          11.8436   11.0938   25.9841 H       1  UNL1        0.0000
     34 H          11.3697    8.7669   26.6584 H       1  UNL1        0.0000
     35 H          10.8899    7.0632   24.9540 H       1  UNL1        0.0000
     36 H           8.1247    5.7954   22.7131 H       1  UNL1        0.0000
     37 H           7.5196    3.7122   23.8430 H       1  UNL1        0.0000
     38 H           9.2812    2.1697   24.6324 H       1  UNL1        0.0000
     39 H          11.6559    2.7422   24.2737 H       1  UNL1        0.0000
     40 H          12.2580    4.8319   23.1332 H       1  UNL1        0.0000
@<TRIPOS>BOND
     1    26     6    1
     2    25     4    1
     3     2     3    1
     4     2     5    1
     5    24     4    1
     6     3     1    1
     7     4    23    1
     8     4     1    1
     9     6     5   ar
    10     6     7   ar
    11     5    10   ar
    12    27     7    1
    13    31    12    1
    14     7     8   ar
    15     1    17    1
    16     1    11    1
    17    36    18    1
    18    17    18   ar
    19    17    22   ar
    20    10    30    1
    21    10     9   ar
    22    12    11   ar
    23    12    13   ar
    24    18    19   ar
    25    40    22    1
    26     8     9   ar
    27     8    28    1
    28    22    21   ar
    29    11    16   ar
    30    32    13    1
    31    19    37    1
    32    19    20   ar
    33     9    29    1
    34    13    14   ar
    35    21    20   ar
    36    21    39    1
    37    20    38    1
    38    16    35    1
    39    16    15   ar
    40    14    15   ar
    41    14    33    1
    42    15    34    1
