@<TRIPOS>MOLECULE
2
 33 34 0 0 0
SMALL
GASTEIGER

@<TRIPOS>ATOM
      1 SI         -0.7210    1.0605    7.5597 Si      1  UNL1        0.0000
      2 C           1.1556    0.9832    5.4489 C.3     1  UNL1        0.0000
      3 C           2.1443    0.1803    6.2492 C.3     1  UNL1        0.0000
      4 O           0.0637    1.4277    6.1949 O.3     1  UNL1        0.0000
      5 C          -1.2970   -0.7622    7.6760 C.3     1  UNL1        0.0000
      6 C           0.2149    1.5229    9.1440 C.ar    1  UNL1        0.0000
      7 C           1.3691    2.3012    9.1253 C.ar    1  UNL1        0.0000
      8 C           2.0178    2.6574   10.2941 C.ar    1  UNL1        0.0000
      9 C           1.5180    2.2420   11.5160 C.ar    1  UNL1        0.0000
     10 C           0.3658    1.4744   11.5582 C.ar    1  UNL1        0.0000
     11 C          -0.2754    1.1233   10.3849 C.ar    1  UNL1        0.0000
     12 C          -2.2450    2.1832    7.3982 C.ar    1  UNL1        0.0000
     13 C          -3.3257    1.8137    6.6041 C.ar    1  UNL1        0.0000
     14 C          -4.4423    2.6216    6.4910 C.ar    1  UNL1        0.0000
     15 C          -4.4960    3.8294    7.1652 C.ar    1  UNL1        0.0000
     16 C          -3.4291    4.2164    7.9569 C.ar    1  UNL1        0.0000
     17 C          -2.3212    3.3963    8.0738 C.ar    1  UNL1        0.0000
     18 H           2.8247   -0.3372    5.5705 H       1  UNL1        0.0000
     19 H           2.7403    0.8297    6.8986 H       1  UNL1        0.0000
     20 H           1.6391   -0.5406    6.8991 H       1  UNL1        0.0000
     21 H          -2.1132   -0.8626    8.3846 H       1  UNL1        0.0000
     22 H          -1.6544   -1.1259    6.7161 H       1  UNL1        0.0000
     23 H          -0.5018   -1.4261    8.0054 H       1  UNL1        0.0000
     24 H           1.7658    2.6373    8.1786 H       1  UNL1        0.0000
     25 H           2.9136    3.2605   10.2513 H       1  UNL1        0.0000
     26 H           2.0219    2.5166   12.4314 H       1  UNL1        0.0000
     27 H          -0.0324    1.1502   12.5093 H       1  UNL1        0.0000
     28 H          -1.1761    0.5286   10.4273 H       1  UNL1        0.0000
     29 H          -3.2944    0.8716    6.0755 H       1  UNL1        0.0000
     30 H          -5.2821    2.3061    5.8858 H       1  UNL1        0.0000
     31 H          -5.3676    4.4623    7.0779 H       1  UNL1        0.0000
     32 H          -3.4650    5.1561    8.4896 H       1  UNL1        0.0000
     33 H          -1.4986    3.6968    8.7073 H       1  UNL1        0.0000
@<TRIPOS>BOND
     1     2     4    1
     2     2     3    1
     3    18     3    1
     4    30    14    1
     5    29    13    1
     6     4     1    1
     7     3    19    1
     8     3    20    1
     9    14    13   ar
    10    14    15   ar
    11    13    12   ar
    12    22     5    1
    13    31    15    1
    14    15    16   ar
    15    12     1    1
    16    12    17   ar
    17     1     5    1
    18     1     6    1
    19     5    23    1
    20     5    21    1
    21    16    17   ar
    22    16    32    1
    23    17    33    1
    24    24     7    1
    25     7     6   ar
    26     7     8   ar
    27     6    11   ar
    28    25     8    1
    29     8     9   ar
    30    11    28    1
    31    11    10   ar
    32     9    10   ar
    33     9    26    1
    34    10    27    1
