@<TRIPOS>MOLECULE
8
 9 8 0 0 0
SMALL
GASTEIGER

@<TRIPOS>ATOM
      1 SI          7.5004    6.1652   12.5507 Si      1  UNL1        0.0000
      2 O           8.6912    6.3329   13.5802 O.3     1  UNL1        0.0000
      3 C           9.9606    6.1444   13.9855 C.1     1  UNL1        0.0000
      4 C          10.9942    5.9648   14.5799 C.1     1  UNL1        0.0000
      5 O           7.3172    5.0802   11.4310 O.3     1  UNL1        0.0000
      6 C           7.5398    4.1070   10.5569 C.1     1  UNL1        0.0000
      7 C           7.8858    3.1103    9.9628 C.1     1  UNL1        0.0000
      8 C           4.7835    5.8703   13.1059 C.3     1  UNL1        0.0000
      9 O           4.0803    4.9970   12.8495 O.3     1  UNL1        0.0000
@<TRIPOS>BOND
     1     7     6    3
     2     6     5    1
     3     5     1    1
     4     1     2    1
     5     9     8    1
     6     2     3    1
     7     3     4    3
     8     1     8    0
