@<TRIPOS>MOLECULE
2
 16 15 0 0 0
SMALL
GASTEIGER

@<TRIPOS>ATOM
      1 SI          3.1762    4.3543   18.2340 Si      1  UNL1        0.0000
      2 C           2.8946    3.5847   16.5384 C.3     1  UNL1        0.0000
      3 H           3.6610    2.8096   16.3966 H       1  UNL1        0.0000
      4 H           3.1272    4.3453   15.7778 H       1  UNL1        0.0000
      5 C           2.5853    3.1607   19.6074 C.3     1  UNL1        0.0000
      6 H           1.5630    2.8304   19.4428 H       1  UNL1        0.0000
      7 H           2.6237    3.6300   20.5857 H       1  UNL1        0.0000
      8 H           3.2116    2.2751   19.6520 H       1  UNL1        0.0000
      9 C           2.2224    6.0087   18.4307 C.3     1  UNL1        0.0000
     10 H           2.6200    6.7743   17.7712 H       1  UNL1        0.0000
     11 H           2.3132    6.3836   19.4455 H       1  UNL1        0.0000
     12 H           1.1622    5.9010   18.2216 H       1  UNL1        0.0000
     13 C           5.0106    4.7772   18.6065 C.3     1  UNL1        0.0000
     14 H           5.6290    3.8855   18.5747 H       1  UNL1        0.0000
     15 H           5.1325    5.2245   19.5884 H       1  UNL1        0.0000
     16 H           5.4096    5.4746   17.8760 H       1  UNL1        0.0000
@<TRIPOS>BOND
     1     4     2    1
     2     3     2    1
     3     2     1    1
     4    10     9    1
     5    16    13    1
     6    12     9    1
     7     1     9    1
     8     1    13    1
     9     1     5    1
    10     9    11    1
    11    14    13    1
    12    13    15    1
    13     6     5    1
    14     5     8    1
    15     5     7    1
