@<TRIPOS>MOLECULE
2
 16 15 0 0 0
SMALL
GASTEIGER

@<TRIPOS>ATOM
      1 SI          2.2692    0.7397   13.1825 Si      1  UNL1        0.0000
      2 C           0.7579    0.9406   14.2849 C.3     1  UNL1        0.0000
      3 H           0.5353   -0.0311   14.7453 H       1  UNL1        0.0000
      4 H          -0.1182    1.1741   13.6626 H       1  UNL1        0.0000
      5 C           3.7272    0.0072   14.1854 C.3     1  UNL1        0.0000
      6 H           3.9240    0.5927   15.0791 H       1  UNL1        0.0000
      7 H           4.6384   -0.0113   13.5961 H       1  UNL1        0.0000
      8 H           3.5203   -1.0127   14.4935 H       1  UNL1        0.0000
      9 C           2.8568    2.4231   12.4801 C.3     1  UNL1        0.0000
     10 H           2.0471    2.9450   11.9762 H       1  UNL1        0.0000
     11 H           3.6570    2.2929   11.7576 H       1  UNL1        0.0000
     12 H           3.2303    3.0693   13.2709 H       1  UNL1        0.0000
     13 C           2.0050   -0.4093   11.6646 C.3     1  UNL1        0.0000
     14 H           1.6871   -1.4002   11.9741 H       1  UNL1        0.0000
     15 H           2.9145   -0.5251   11.0829 H       1  UNL1        0.0000
     16 H           1.2409   -0.0154   11.0011 H       1  UNL1        0.0000
@<TRIPOS>BOND
     1    16    13    1
     2    15    13    1
     3    13    14    1
     4    13     1    1
     5    11     9    1
     6    10     9    1
     7     9     1    1
     8     9    12    1
     9     1     5    1
    10     1     2    1
    11     7     5    1
    12     4     2    1
    13     5     8    1
    14     5     6    1
    15     2     3    1
