@<TRIPOS>MOLECULE
2
 16 15 0 0 0
SMALL
GASTEIGER

@<TRIPOS>ATOM
      1 SI         11.0906    8.7835    3.6583 Si      1  UNL1        0.0000
      2 C          11.8612    7.4562    4.7570 C.3     1  UNL1        0.0000
      3 H          11.5665    6.4863    4.3327 H       1  UNL1        0.0000
      4 H          11.3317    7.5075    5.7197 H       1  UNL1        0.0000
      5 C          12.0227    9.0084    1.9950 C.3     1  UNL1        0.0000
      6 H          13.0824    8.8008    2.1089 H       1  UNL1        0.0000
      7 H          11.9304   10.0291    1.6374 H       1  UNL1        0.0000
      8 H          11.6304    8.3599    1.2173 H       1  UNL1        0.0000
      9 C           9.2786    8.3604    3.1813 C.3     1  UNL1        0.0000
     10 H           9.2134    7.3832    2.7119 H       1  UNL1        0.0000
     11 H           8.8643    9.0854    2.4873 H       1  UNL1        0.0000
     12 H           8.6372    8.3420    4.0567 H       1  UNL1        0.0000
     13 C          11.0427   10.4863    4.5275 C.3     1  UNL1        0.0000
     14 H          10.7003   10.4009    5.5539 H       1  UNL1        0.0000
     15 H          10.3691   11.1666    4.0155 H       1  UNL1        0.0000
     16 H          12.0253   10.9428    4.5385 H       1  UNL1        0.0000
@<TRIPOS>BOND
     1     8     5    1
     2     7     5    1
     3     5     6    1
     4     5     1    1
     5    11     9    1
     6    10     9    1
     7     9     1    1
     8     9    12    1
     9     1    13    1
    10     1     2    1
    11    15    13    1
    12     3     2    1
    13    13    16    1
    14    13    14    1
    15     2     4    1
