@<TRIPOS>MOLECULE
2
 16 15 0 0 0
SMALL
GASTEIGER

@<TRIPOS>ATOM
      1 SI          1.3369    6.8275    3.0024 Si      1  UNL1        0.0000
      2 C           2.9134    6.7957    1.9567 C.3     1  UNL1        0.0000
      3 C           0.3288    5.2333    2.6875 C.3     1  UNL1        0.0000
      4 C           0.1906    8.3158    2.6264 C.3     1  UNL1        0.0000
      5 C           1.7814    6.8929    4.8719 C.3     1  UNL1        0.0000
      6 H           3.2333    5.7466    1.9038 H       1  UNL1        0.0000
      7 H           3.7203    7.3345    2.4624 H       1  UNL1        0.0000
      8 H           0.0049    5.2098    1.6524 H       1  UNL1        0.0000
      9 H          -0.5553    5.1863    3.3161 H       1  UNL1        0.0000
     10 H           0.9133    4.3374    2.8744 H       1  UNL1        0.0000
     11 H           0.4211    9.2000    3.2141 H       1  UNL1        0.0000
     12 H          -0.8470    8.0628    2.8204 H       1  UNL1        0.0000
     13 H           0.2804    8.5616    1.5716 H       1  UNL1        0.0000
     14 H           2.3710    7.7707    5.1186 H       1  UNL1        0.0000
     15 H           2.3531    6.0213    5.1736 H       1  UNL1        0.0000
     16 H           0.8845    6.9210    5.4815 H       1  UNL1        0.0000
@<TRIPOS>BOND
     1    13     4    1
     2     8     3    1
     3     6     2    1
     4     2     7    1
     5     2     1    1
     6     4    12    1
     7     4     1    1
     8     4    11    1
     9     3    10    1
    10     3     1    1
    11     3     9    1
    12     1     5    1
    13     5    14    1
    14     5    15    1
    15     5    16    1
