@<TRIPOS>MOLECULE
1
 4 3 0 0 0
SMALL
GASTEIGER

@<TRIPOS>ATOM
      1 C           1.3888    2.2539    4.4887 C.3     1  UNL1       -0.0681
      2 H           1.0630    1.5628    3.7085 H       1  UNL1        0.0227
      3 H           1.6254    1.6436    5.3666 H       1  UNL1        0.0227
      4 H           2.3234    2.7220    4.1472 H       1  UNL1        0.0227
@<TRIPOS>BOND
     1     2     1    1
     2     4     1    1
     3     1     3    1
