@<TRIPOS>MOLECULE
1
 4 3 0 0 0
SMALL
GASTEIGER

@<TRIPOS>ATOM
      1 C          -1.4274    2.2535    5.2694 C.3     1  UNL1       -0.0681
      2 H          -1.1013    1.5623    6.0495 H       1  UNL1        0.0227
      3 H          -1.6639    1.6433    4.3914 H       1  UNL1        0.0227
      4 H          -2.3621    2.7213    5.6111 H       1  UNL1        0.0227
@<TRIPOS>BOND
     1     3     1    1
     2     1     4    1
     3     1     2    1
