@<TRIPOS>MOLECULE
1
 4 3 0 0 0
SMALL
GASTEIGER

@<TRIPOS>ATOM
      1 C          -0.5074    1.1474   12.4197 C.3     1  UNL1       -0.0681
      2 H           0.2903    0.4750   12.0700 H       1  UNL1        0.0227
      3 H          -0.0732    2.1547   12.4883 H       1  UNL1        0.0227
      4 H          -1.2620    1.1889   11.6169 H       1  UNL1        0.0227
@<TRIPOS>BOND
     1     4     1    1
     2     2     1    1
     3     1     3    1
