@<TRIPOS>MOLECULE
1
 4 3 0 0 0
SMALL
GASTEIGER

@<TRIPOS>ATOM
      1 C          -6.7494    0.0236   -1.5523 C.3     1  UNL1       -0.0681
      2 H          -6.8302    0.9278   -0.9264 H       1  UNL1        0.0227
      3 H          -7.1113   -0.8119   -0.9367 H       1  UNL1        0.0227
      4 H          -7.4650    0.1485   -2.3779 H       1  UNL1        0.0227
@<TRIPOS>BOND
     1     4     1    1
     2     1     3    1
     3     1     2    1
