@<TRIPOS>MOLECULE
1
 4 3 0 0 0
SMALL
GASTEIGER

@<TRIPOS>ATOM
      1 C          -2.8355    1.8487   14.3888 C.3     1  UNL1       -0.0681
      2 H          -2.5167    2.8751   14.1648 H       1  UNL1        0.0227
      3 H          -3.1866    1.8318   15.4303 H       1  UNL1        0.0227
      4 H          -3.7035    1.6327   13.7479 H       1  UNL1        0.0227
@<TRIPOS>BOND
     1     4     1    1
     2     2     1    1
     3     1     3    1
