@<TRIPOS>MOLECULE
1
 4 3 0 0 0
SMALL
GASTEIGER

@<TRIPOS>ATOM
      1 C          -3.8294   -0.1850   -0.4604 C.3     1  UNL1       -0.0681
      2 H          -4.3198   -0.7855    0.3169 H       1  UNL1        0.0227
      3 H          -3.7108    0.8326   -0.0581 H       1  UNL1        0.0227
      4 H          -2.8224   -0.5988   -0.6104 H       1  UNL1        0.0227
@<TRIPOS>BOND
     1     4     1    1
     2     1     3    1
     3     1     2    1
