@<TRIPOS>MOLECULE
1
 13 12 0 0 0
SMALL
GASTEIGER

@<TRIPOS>ATOM
      1 C           2.8995    7.8799    2.4593 C.3     1  UNL1       -0.0328
      2 C           3.0793    6.6419    3.3702 C.3     1  UNL1       -0.0596
      3 H           2.9432    5.7210    2.7867 H       1  UNL1        0.0235
      4 H           4.0775    6.6086    3.8068 H       1  UNL1        0.0235
      5 H           2.3455    6.6304    4.1776 H       1  UNL1        0.0235
      6 C           3.9108    7.6918    1.2996 C.3     1  UNL1       -0.0596
      7 H           3.8199    8.4818    0.5513 H       1  UNL1        0.0235
      8 H           4.9389    7.6831    1.6677 H       1  UNL1        0.0235
      9 H           3.7329    6.7341    0.7914 H       1  UNL1        0.0235
     10 C           1.4896    7.7307    1.8352 C.3     1  UNL1       -0.0596
     11 H           1.2872    8.5165    1.1079 H       1  UNL1        0.0235
     12 H           0.7126    7.7616    2.6023 H       1  UNL1        0.0235
     13 H           1.4041    6.7663    1.3157 H       1  UNL1        0.0235
@<TRIPOS>BOND
     1     7     6    1
     2     9     6    1
     3    11    10    1
     4     6     8    1
     5     6     1    1
     6    13    10    1
     7    10     1    1
     8    10    12    1
     9     1     2    1
    10     3     2    1
    11     2     4    1
    12     2     5    1
