@<TRIPOS>MOLECULE
1
 7 6 0 0 0
SMALL
GASTEIGER

@<TRIPOS>ATOM
      1 C          -2.4551    9.5927   15.5706 C.3     1  UNL1       -0.0562
      2 H          -2.6923    9.7965   16.6282 H       1  UNL1        0.0263
      3 H          -2.1030   10.5543   15.1623 H       1  UNL1        0.0263
      4 C          -3.7965    9.2697   14.8799 C.3     1  UNL1       -0.0653
      5 H          -4.5231   10.0831   14.9991 H       1  UNL1        0.0230
      6 H          -4.2434    8.3695   15.3076 H       1  UNL1        0.0230
      7 H          -3.6611    9.1072   13.8087 H       1  UNL1        0.0230
@<TRIPOS>BOND
     1     7     4    1
     2     4     5    1
     3     4     6    1
     4     4     1    1
     5     3     1    1
     6     1     2    1
