@<TRIPOS>MOLECULE
1
 7 6 0 0 0
SMALL
GASTEIGER

@<TRIPOS>ATOM
      1 C           0.0611    7.8459   17.2508 C.3     1  UNL1       -0.0562
      2 H          -0.3781    7.1800   18.0126 H       1  UNL1        0.0263
      3 H           1.0804    7.4584   17.0768 H       1  UNL1        0.0263
      4 C           0.2275    9.2375   17.8949 C.3     1  UNL1       -0.0653
      5 H           0.8598    9.2002   18.7901 H       1  UNL1        0.0230
      6 H          -0.7353    9.6518   18.1986 H       1  UNL1        0.0230
      7 H           0.6922    9.9323   17.1926 H       1  UNL1        0.0230
@<TRIPOS>BOND
     1     3     1    1
     2     7     4    1
     3     1     4    1
     4     1     2    1
     5     4     6    1
     6     4     5    1
