@<TRIPOS>MOLECULE
2
 16 15 0 0 0
SMALL
GASTEIGER

@<TRIPOS>ATOM
      1 SI          6.7187    5.9790    3.1717 Si      1  UNL1        0.0000
      2 C           5.4565    4.8702    2.2888 C.3     1  UNL1        0.0000
      3 C           5.9165    7.6098    3.7909 C.3     1  UNL1        0.0000
      4 C           8.0704    6.5044    1.9108 C.3     1  UNL1        0.0000
      5 C           7.7043    5.2771    4.6626 C.3     1  UNL1        0.0000
      6 H           4.7567    5.5691    1.8054 H       1  UNL1        0.0000
      7 H           5.9908    4.3805    1.4615 H       1  UNL1        0.0000
      8 H           6.6813    8.3323    4.0594 H       1  UNL1        0.0000
      9 H           5.3014    8.0647    3.0202 H       1  UNL1        0.0000
     10 H           5.2919    7.4611    4.6655 H       1  UNL1        0.0000
     11 H           8.8003    7.1690    2.3621 H       1  UNL1        0.0000
     12 H           8.6083    5.6421    1.5282 H       1  UNL1        0.0000
     13 H           7.6392    7.0223    1.0597 H       1  UNL1        0.0000
     14 H           8.2784    6.0746    5.1264 H       1  UNL1        0.0000
     15 H           7.0657    4.8509    5.4303 H       1  UNL1        0.0000
     16 H           8.4131    4.5163    4.3500 H       1  UNL1        0.0000
@<TRIPOS>BOND
     1    13     4    1
     2     7     2    1
     3    12     4    1
     4     6     2    1
     5     4    11    1
     6     4     1    1
     7     2     1    1
     8     9     3    1
     9     1     3    1
    10     1     5    1
    11     3     8    1
    12     3    10    1
    13    16     5    1
    14     5    14    1
    15     5    15    1
