@<TRIPOS>MOLECULE
2
 16 15 0 0 0
SMALL
GASTEIGER

@<TRIPOS>ATOM
      1 SI          1.7008    2.2344    0.8455 Si      1  UNL1        0.0000
      2 C           3.2135    3.3000    1.2714 C.3     1  UNL1        0.0000
      3 C           1.7874    1.7608   -1.0150 C.3     1  UNL1        0.0000
      4 C           0.0535    3.1938    1.0801 C.3     1  UNL1        0.0000
      5 C           1.4409    0.5734    1.7696 C.3     1  UNL1        0.0000
      6 H           3.9962    3.0571    0.5367 H       1  UNL1        0.0000
      7 H           2.9194    4.3383    1.0543 H       1  UNL1        0.0000
      8 H           0.9289    1.1692   -1.3166 H       1  UNL1        0.0000
      9 H           1.8140    2.6435   -1.6464 H       1  UNL1        0.0000
     10 H           2.6774    1.1781   -1.2343 H       1  UNL1        0.0000
     11 H          -0.7388    2.7326    0.4983 H       1  UNL1        0.0000
     12 H          -0.2717    3.1990    2.1159 H       1  UNL1        0.0000
     13 H           0.1356    4.2252    0.7505 H       1  UNL1        0.0000
     14 H           0.5500    0.0827    1.3870 H       1  UNL1        0.0000
     15 H           2.2701   -0.1117    1.6275 H       1  UNL1        0.0000
     16 H           1.2948    0.7146    2.8361 H       1  UNL1        0.0000
@<TRIPOS>BOND
     1     9     3    1
     2     8     3    1
     3    10     3    1
     4     3     1    1
     5    11     4    1
     6     6     2    1
     7    13     4    1
     8     1     4    1
     9     1     2    1
    10     1     5    1
    11     7     2    1
    12     4    12    1
    13    14     5    1
    14    15     5    1
    15     5    16    1
