@<TRIPOS>MOLECULE
2
 16 15 0 0 0
SMALL
GASTEIGER

@<TRIPOS>ATOM
      1 SI          2.5572    6.2513    3.6497 Si      1  UNL1        0.0000
      2 C           1.5171    4.9425    4.5112 C.3     1  UNL1        0.0000
      3 C           2.2686    8.0707    4.2067 C.3     1  UNL1        0.0000
      4 C           2.1807    6.1993    1.7723 C.3     1  UNL1        0.0000
      5 C           4.4294    5.9358    3.9344 C.3     1  UNL1        0.0000
      6 H           0.4970    5.3544    4.5661 H       1  UNL1        0.0000
      7 H           1.8485    4.8982    5.5605 H       1  UNL1        0.0000
      8 H           1.2263    8.3509    4.0854 H       1  UNL1        0.0000
      9 H           2.8633    8.7731    3.6298 H       1  UNL1        0.0000
     10 H           2.5225    8.2114    5.2536 H       1  UNL1        0.0000
     11 H           2.0322    5.1709    1.4403 H       1  UNL1        0.0000
     12 H           2.9820    6.6321    1.1816 H       1  UNL1        0.0000
     13 H           1.2752    6.7530    1.5438 H       1  UNL1        0.0000
     14 H           4.6955    6.0572    4.9801 H       1  UNL1        0.0000
     15 H           5.0372    6.6299    3.3629 H       1  UNL1        0.0000
     16 H           4.7117    4.9307    3.6376 H       1  UNL1        0.0000
@<TRIPOS>BOND
     1    12     4    1
     2    11     4    1
     3    13     4    1
     4     4     1    1
     5    15     5    1
     6     9     3    1
     7    16     5    1
     8     1     5    1
     9     1     3    1
    10     1     2    1
    11     5    14    1
    12     8     3    1
    13     3    10    1
    14     2     6    1
    15     2     7    1
