@<TRIPOS>MOLECULE
2
 16 15 0 0 0
SMALL
GASTEIGER

@<TRIPOS>ATOM
      1 SI          3.3007    1.7531    0.4795 Si      1  UNL1        0.0000
      2 C           3.2544    2.3757    2.2545 C.3     1  UNL1        0.0000
      3 C           2.4678    2.9949   -0.7118 C.3     1  UNL1        0.0000
      4 C           5.0645    1.4333   -0.2234 C.3     1  UNL1        0.0000
      5 C           2.3876    0.0708    0.2873 C.3     1  UNL1        0.0000
      6 H           3.7652    3.3550    2.2295 H       1  UNL1        0.0000
      7 H           3.9356    1.7303    2.8337 H       1  UNL1        0.0000
      8 H           1.4766    3.2684   -0.3624 H       1  UNL1        0.0000
      9 H           2.3660    2.5855   -1.7125 H       1  UNL1        0.0000
     10 H           3.0504    3.9072   -0.7910 H       1  UNL1        0.0000
     11 H           5.6632    2.3388   -0.1905 H       1  UNL1        0.0000
     12 H           5.0400    1.0970   -1.2560 H       1  UNL1        0.0000
     13 H           5.5905    0.6767    0.3526 H       1  UNL1        0.0000
     14 H           2.8338   -0.7080    0.9002 H       1  UNL1        0.0000
     15 H           2.4226   -0.2730   -0.7419 H       1  UNL1        0.0000
     16 H           1.3406    0.1605    0.5636 H       1  UNL1        0.0000
@<TRIPOS>BOND
     1     9     3    1
     2    12     4    1
     3    10     3    1
     4    15     5    1
     5     3     8    1
     6     3     1    1
     7     4    11    1
     8     4    13    1
     9     4     1    1
    10     5     1    1
    11     5    16    1
    12     5    14    1
    13     1     2    1
    14     6     2    1
    15     2     7    1
