@<TRIPOS>MOLECULE
2
 16 15 0 0 0
SMALL
GASTEIGER

@<TRIPOS>ATOM
      1 SI         -1.7591    3.8391    1.5731 Si      1  UNL1        0.0000
      2 C          -0.5282    2.5076    2.0892 C.3     1  UNL1        0.0000
      3 C          -3.5454    3.1545    1.3414 C.3     1  UNL1        0.0000
      4 C          -1.9423    5.2599    2.8531 C.3     1  UNL1        0.0000
      5 C          -1.2682    4.6790   -0.0738 C.3     1  UNL1        0.0000
      6 H          -0.0994    2.1220    1.1486 H       1  UNL1        0.0000
      7 H          -1.1219    1.6667    2.4771 H       1  UNL1        0.0000
      8 H          -3.5762    2.3910    0.5698 H       1  UNL1        0.0000
      9 H          -4.2472    3.9331    1.0575 H       1  UNL1        0.0000
     10 H          -3.9146    2.7035    2.2589 H       1  UNL1        0.0000
     11 H          -2.1902    4.8916    3.8457 H       1  UNL1        0.0000
     12 H          -2.7296    5.9494    2.5618 H       1  UNL1        0.0000
     13 H          -1.0200    5.8281    2.9291 H       1  UNL1        0.0000
     14 H          -0.2865    5.1345    0.0074 H       1  UNL1        0.0000
     15 H          -1.9700    5.4592   -0.3531 H       1  UNL1        0.0000
     16 H          -1.2320    3.9637   -0.8896 H       1  UNL1        0.0000
@<TRIPOS>BOND
     1    16     5    1
     2    15     5    1
     3     5    14    1
     4     5     1    1
     5     8     3    1
     6     9     3    1
     7     6     2    1
     8     3     1    1
     9     3    10    1
    10     1     2    1
    11     1     4    1
    12     2     7    1
    13    12     4    1
    14     4    13    1
    15     4    11    1
