@<TRIPOS>MOLECULE
2
 16 15 0 0 0
SMALL
GASTEIGER

@<TRIPOS>ATOM
      1 SI          9.4473    5.5439   15.1707 Si      1  UNL1        0.0000
      2 C           8.5885    7.0879   15.9169 C.3     1  UNL1        0.0000
      3 C           8.7530    5.0218   13.4696 C.3     1  UNL1        0.0000
      4 C          11.3035    5.9545   14.9355 C.3     1  UNL1        0.0000
      5 C           9.3346    4.1121   16.4351 C.3     1  UNL1        0.0000
      6 H           7.6923    4.7793   13.5343 H       1  UNL1        0.0000
      7 H           8.8611    5.8178   12.7372 H       1  UNL1        0.0000
      8 H           9.2733    4.1486   13.0868 H       1  UNL1        0.0000
      9 H          11.4500    6.7553   14.2182 H       1  UNL1        0.0000
     10 H          11.7680    6.2572   15.8682 H       1  UNL1        0.0000
     11 H          11.8406    5.0864   14.5706 H       1  UNL1        0.0000
     12 H           9.8918    4.3343   17.3404 H       1  UNL1        0.0000
     13 H           8.3049    3.9115   16.7155 H       1  UNL1        0.0000
     14 H           9.7424    3.1988   16.0154 H       1  UNL1        0.0000
     15 H           8.8196    7.1002   16.9919 H       1  UNL1        0.0000
     16 H           9.0489    7.9859   15.4767 H       1  UNL1        0.0000
@<TRIPOS>BOND
     1     7     3    1
     2     8     3    1
     3     3     6    1
     4     3     1    1
     5     9     4    1
     6    11     4    1
     7     4     1    1
     8     4    10    1
     9     1     2    1
    10     1     5    1
    11    16     2    1
    12     2    15    1
    13    14     5    1
    14     5    13    1
    15     5    12    1
