@<TRIPOS>MOLECULE
2
 16 15 0 0 0
SMALL
GASTEIGER

@<TRIPOS>ATOM
      1 SI          2.4371    3.9027   -0.8222 Si      1  UNL1        0.0000
      2 C           2.3214    3.9049    1.0861 C.3     1  UNL1        0.0000
      3 C           0.9114    3.1012   -1.6625 C.3     1  UNL1        0.0000
      4 C           3.9984    2.9589   -1.3993 C.3     1  UNL1        0.0000
      5 C           2.5782    5.7084   -1.4400 C.3     1  UNL1        0.0000
      6 H           3.2210    3.4443    1.5013 H       1  UNL1        0.0000
      7 H           2.3298    4.9411    1.4249 H       1  UNL1        0.0000
      8 H           0.7002    2.1195   -1.2465 H       1  UNL1        0.0000
      9 H           1.0790    2.9752   -2.7284 H       1  UNL1        0.0000
     10 H           0.0200    3.7108   -1.5444 H       1  UNL1        0.0000
     11 H           3.9344    1.8964   -1.1854 H       1  UNL1        0.0000
     12 H           4.8916    3.3377   -0.9120 H       1  UNL1        0.0000
     13 H           4.1418    3.0664   -2.4700 H       1  UNL1        0.0000
     14 H           3.4682    6.1899   -1.0468 H       1  UNL1        0.0000
     15 H           1.7241    6.3079   -1.1395 H       1  UNL1        0.0000
     16 H           2.6391    5.7468   -2.5230 H       1  UNL1        0.0000
@<TRIPOS>BOND
     1     9     3    1
     2    16     5    1
     3    13     4    1
     4     3    10    1
     5     3     8    1
     6     3     1    1
     7     5    15    1
     8     5    14    1
     9     5     1    1
    10     4    11    1
    11     4    12    1
    12     4     1    1
    13     1     2    1
    14     2     7    1
    15     2     6    1
