@<TRIPOS>MOLECULE
2
 16 15 0 0 0
SMALL
GASTEIGER

@<TRIPOS>ATOM
      1 SI         -0.3237    6.0477    2.7434 Si      1  UNL1        0.0000
      2 C          -0.3137    4.7012    1.3829 C.3     1  UNL1        0.0000
      3 C          -1.2672    5.5946    4.3388 C.3     1  UNL1        0.0000
      4 C           1.4267    6.6140    3.2696 C.3     1  UNL1        0.0000
      5 C          -1.2061    7.5499    1.9445 C.3     1  UNL1        0.0000
      6 H          -1.3472    4.4849    1.1144 H       1  UNL1        0.0000
      7 H           0.1540    5.1371    0.4982 H       1  UNL1        0.0000
      8 H          -2.2934    5.2994    4.1499 H       1  UNL1        0.0000
      9 H          -1.2884    6.4394    5.0217 H       1  UNL1        0.0000
     10 H          -0.7750    4.7722    4.8465 H       1  UNL1        0.0000
     11 H           1.9949    7.0315    2.4432 H       1  UNL1        0.0000
     12 H           1.9892    5.7810    3.6821 H       1  UNL1        0.0000
     13 H           1.3651    7.3797    4.0378 H       1  UNL1        0.0000
     14 H          -1.2667    8.3760    2.6443 H       1  UNL1        0.0000
     15 H          -2.2187    7.3051    1.6416 H       1  UNL1        0.0000
     16 H          -0.6794    7.9058    1.0653 H       1  UNL1        0.0000
@<TRIPOS>BOND
     1     7     2    1
     2    16     5    1
     3     6     2    1
     4     2     1    1
     5    15     5    1
     6     5    14    1
     7     5     1    1
     8    11     4    1
     9     1     4    1
    10     1     3    1
    11     4    12    1
    12     4    13    1
    13     8     3    1
    14     3    10    1
    15     3     9    1
