@<TRIPOS>MOLECULE
2
 16 15 0 0 0
SMALL
GASTEIGER

@<TRIPOS>ATOM
      1 SI         -2.6525    2.1097    2.4386 Si      1  UNL1        0.0000
      2 C          -1.0586    1.9587    1.3901 C.3     1  UNL1        0.0000
      3 C          -3.7543    3.5997    1.9518 C.3     1  UNL1        0.0000
      4 C          -3.6753    0.5455    2.0062 C.3     1  UNL1        0.0000
      5 C          -2.3264    2.0956    4.3172 C.3     1  UNL1        0.0000
      6 H          -0.8486    0.8865    1.3610 H       1  UNL1        0.0000
      7 H          -1.2885    2.2548    0.3593 H       1  UNL1        0.0000
      8 H          -3.8901    3.6601    0.8755 H       1  UNL1        0.0000
      9 H          -3.3465    4.5473    2.2863 H       1  UNL1        0.0000
     10 H          -4.7409    3.4940    2.3940 H       1  UNL1        0.0000
     11 H          -4.6193    0.5422    2.5414 H       1  UNL1        0.0000
     12 H          -3.1468   -0.3645    2.2725 H       1  UNL1        0.0000
     13 H          -3.9026    0.4934    0.9461 H       1  UNL1        0.0000
     14 H          -1.3497    2.5190    4.5346 H       1  UNL1        0.0000
     15 H          -2.3456    1.0847    4.7134 H       1  UNL1        0.0000
     16 H          -3.0680    2.6741    4.8596 H       1  UNL1        0.0000
@<TRIPOS>BOND
     1     7     2    1
     2     8     3    1
     3    13     4    1
     4     6     2    1
     5     2     1    1
     6     3     9    1
     7     3    10    1
     8     3     1    1
     9     4    12    1
    10     4     1    1
    11     4    11    1
    12     1     5    1
    13     5    14    1
    14     5    15    1
    15     5    16    1
