@<TRIPOS>MOLECULE
2
 16 15 0 0 0
SMALL
GASTEIGER

@<TRIPOS>ATOM
      1 SI          2.2367    0.2799    2.9215 Si      1  UNL1        0.0000
      2 C           1.6742    1.2483    1.3723 C.3     1  UNL1        0.0000
      3 C           3.1269   -1.2932    2.2905 C.3     1  UNL1        0.0000
      4 C           3.4865    1.3052    3.9394 C.3     1  UNL1        0.0000
      5 C           0.7580   -0.2622    4.0002 C.3     1  UNL1        0.0000
      6 H           2.5674    1.4630    0.7849 H       1  UNL1        0.0000
      7 H           1.0645    0.5852    0.7548 H       1  UNL1        0.0000
      8 H           3.4910   -1.8871    3.1216 H       1  UNL1        0.0000
      9 H           3.9795   -1.0487    1.6659 H       1  UNL1        0.0000
     10 H           2.4625   -1.9216    1.7071 H       1  UNL1        0.0000
     11 H           3.0495    2.2615    4.2149 H       1  UNL1        0.0000
     12 H           4.3971    1.5011    3.3805 H       1  UNL1        0.0000
     13 H           3.7679    0.7932    4.8544 H       1  UNL1        0.0000
     14 H           0.0643   -0.8899    3.4488 H       1  UNL1        0.0000
     15 H           0.2128    0.6087    4.3492 H       1  UNL1        0.0000
     16 H           1.0874   -0.8226    4.8701 H       1  UNL1        0.0000
@<TRIPOS>BOND
     1     7     2    1
     2     6     2    1
     3     2     1    1
     4     9     3    1
     5    10     3    1
     6     3     1    1
     7     3     8    1
     8     1     4    1
     9     1     5    1
    10    12     4    1
    11    14     5    1
    12     4    11    1
    13     4    13    1
    14     5    15    1
    15     5    16    1
