@<TRIPOS>MOLECULE
2
 16 15 0 0 0
SMALL
GASTEIGER

@<TRIPOS>ATOM
      1 SI          1.1605    3.4928    2.8704 Si      1  UNL1        0.0000
      2 C           2.2362    3.0992    4.3778 C.3     1  UNL1        0.0000
      3 H           2.8504    2.2211    4.1594 H       1  UNL1        0.0000
      4 H           1.5953    2.8184    5.2206 H       1  UNL1        0.0000
      5 C           2.1521    3.4182    1.2364 C.3     1  UNL1        0.0000
      6 H           1.5114    3.6270    0.3846 H       1  UNL1        0.0000
      7 H           2.5897    2.4366    1.0822 H       1  UNL1        0.0000
      8 H           2.9592    4.1439    1.2284 H       1  UNL1        0.0000
      9 C          -0.2477    2.1967    2.7475 C.3     1  UNL1        0.0000
     10 H          -0.8974    2.2252    3.6171 H       1  UNL1        0.0000
     11 H           0.1444    1.1879    2.6662 H       1  UNL1        0.0000
     12 H          -0.8648    2.3779    1.8737 H       1  UNL1        0.0000
     13 C           0.3176    5.2111    2.9803 C.3     1  UNL1        0.0000
     14 H          -0.1451    5.3789    3.9506 H       1  UNL1        0.0000
     15 H          -0.4638    5.3023    2.2310 H       1  UNL1        0.0000
     16 H           1.0339    6.0087    2.7998 H       1  UNL1        0.0000
@<TRIPOS>BOND
     1     6     5    1
     2     7     5    1
     3     8     5    1
     4     5     1    1
     5    12     9    1
     6    15    13    1
     7    11     9    1
     8     9     1    1
     9     9    10    1
    10    16    13    1
    11     1    13    1
    12     1     2    1
    13    13    14    1
    14     3     2    1
    15     2     4    1
