@<TRIPOS>MOLECULE
2
 16 15 0 0 0
SMALL
GASTEIGER

@<TRIPOS>ATOM
      1 SI          1.4763    6.0419    7.2885 Si      1  UNL1        0.0000
      2 C           2.3297    6.4385    5.6432 C.3     1  UNL1        0.0000
      3 H           3.0241    7.2654    5.8194 H       1  UNL1        0.0000
      4 H           1.5840    6.8121    4.9329 H       1  UNL1        0.0000
      5 C           0.5483    4.3644    7.3007 C.3     1  UNL1        0.0000
      6 H          -0.1274    4.3110    8.1502 H       1  UNL1        0.0000
      7 H           1.2405    3.5315    7.3869 H       1  UNL1        0.0000
      8 H          -0.0499    4.2201    6.4037 H       1  UNL1        0.0000
      9 C           0.1557    7.3891    7.6354 C.3     1  UNL1        0.0000
     10 H          -0.3122    7.2322    8.6017 H       1  UNL1        0.0000
     11 H          -0.6313    7.3814    6.8874 H       1  UNL1        0.0000
     12 H           0.5905    8.3836    7.6413 H       1  UNL1        0.0000
     13 C           2.7154    6.0600    8.7451 C.3     1  UNL1        0.0000
     14 H           3.0653    7.0671    8.9526 H       1  UNL1        0.0000
     15 H           3.5854    5.4459    8.5336 H       1  UNL1        0.0000
     16 H           2.2560    5.6842    9.6548 H       1  UNL1        0.0000
@<TRIPOS>BOND
     1     4     2    1
     2     2     3    1
     3     2     1    1
     4     8     5    1
     5    11     9    1
     6     1     5    1
     7     1     9    1
     8     1    13    1
     9     5     7    1
    10     5     6    1
    11     9    12    1
    12     9    10    1
    13    15    13    1
    14    13    14    1
    15    13    16    1
