@<TRIPOS>MOLECULE
5
 50 52 0 0 0
SMALL
GASTEIGER

@<TRIPOS>ATOM
      1 SI          1.2211    7.1268    2.4751 Si      1  UNL1        0.0000
      2 O           0.5987    5.2134    4.8039 O.3     1  UNL1        0.0000
      3 O           1.6008    4.8967    0.8502 O.2     1  UNL1        0.0000
      4 N           1.6490    3.0395    2.1977 N.pl3   1  UNL1        0.0000
      5 C           1.4090    4.2373    4.3973 C.3     1  UNL1        0.0000
      6 C           0.4426    5.4962    6.1856 C.3     1  UNL1        0.0000
      7 C          -0.8564    6.2645    6.3779 C.3     1  UNL1        0.0000
      8 C           1.9464    3.5112    0.8553 C.3     1  UNL1        0.0000
      9 C           1.3833    4.1978    2.9644 C.2     1  UNL1        0.0000
     10 C           1.3325    5.2710    2.1286 C.2     1  UNL1        0.0000
     11 C           3.4133    3.3629    0.4862 C.ar    1  UNL1        0.0000
     12 C           4.2475    2.4989    1.1800 C.ar    1  UNL1        0.0000
     13 C           5.5816    2.3934    0.8264 C.ar    1  UNL1        0.0000
     14 C           6.0891    3.1513   -0.2148 C.ar    1  UNL1        0.0000
     15 C           5.2581    4.0176   -0.9057 C.ar    1  UNL1        0.0000
     16 C           3.9237    4.1224   -0.5585 C.ar    1  UNL1        0.0000
     17 C           0.9851    1.8326    2.3968 C.ar    1  UNL1        0.0000
     18 C           1.2225    0.7611    1.5336 C.ar    1  UNL1        0.0000
     19 C           0.6091   -0.4580    1.7505 C.ar    1  UNL1        0.0000
     20 C          -0.2464   -0.6375    2.8236 C.ar    1  UNL1        0.0000
     21 C          -0.4943    0.4247    3.6768 C.ar    1  UNL1        0.0000
     22 C           0.1081    1.6494    3.4675 C.ar    1  UNL1        0.0000
     23 C          -0.6197    7.5778    2.7026 C.3     1  UNL1        0.0000
     24 C           1.9223    7.9725    0.9188 C.3     1  UNL1        0.0000
     25 C           2.2866    7.6029    3.9878 C.3     1  UNL1        0.0000
     26 H           1.2925    6.0957    6.5313 H       1  UNL1        0.0000
     27 H           0.4256    4.5567    6.7539 H       1  UNL1        0.0000
     28 H          -1.0037    6.4718    7.4337 H       1  UNL1        0.0000
     29 H          -1.6967    5.6789    6.0139 H       1  UNL1        0.0000
     30 H          -0.8234    7.2042    5.8338 H       1  UNL1        0.0000
     31 H           1.3201    2.9999    0.1038 H       1  UNL1        0.0000
     32 H           3.8577    1.9135    1.9990 H       1  UNL1        0.0000
     33 H           6.2249    1.7195    1.3720 H       1  UNL1        0.0000
     34 H           7.1315    3.0705   -0.4850 H       1  UNL1        0.0000
     35 H           5.6505    4.6146   -1.7157 H       1  UNL1        0.0000
     36 H           3.2696    4.8016   -1.0844 H       1  UNL1        0.0000
     37 H           1.9051    0.8754    0.7051 H       1  UNL1        0.0000
     38 H           0.8105   -1.2773    1.0764 H       1  UNL1        0.0000
     39 H          -0.7147   -1.5946    2.9938 H       1  UNL1        0.0000
     40 H          -1.1672    0.3017    4.5127 H       1  UNL1        0.0000
     41 H          -0.1069    2.4748    4.1312 H       1  UNL1        0.0000
     42 H          -1.1122    6.9109    3.4022 H       1  UNL1        0.0000
     43 H          -1.1526    7.5146    1.7584 H       1  UNL1        0.0000
     44 H          -0.7304    8.5934    3.0703 H       1  UNL1        0.0000
     45 H           2.9720    7.7297    0.7795 H       1  UNL1        0.0000
     46 H           1.8376    9.0534    0.9808 H       1  UNL1        0.0000
     47 H           1.3935    7.6492    0.0276 H       1  UNL1        0.0000
     48 H           1.6763    7.9013    4.8334 H       1  UNL1        0.0000
     49 H           2.9341    8.4404    3.7463 H       1  UNL1        0.0000
     50 H           2.9226    6.7817    4.3091 H       1  UNL1        0.0000
@<TRIPOS>BOND
     1    35    15    1
     2    36    16    1
     3    15    16   ar
     4    15    14   ar
     5    16    11   ar
     6    34    14    1
     7    14    13   ar
     8    47    24    1
     9    31     8    1
    10    11     8    1
    11    11    12   ar
    12    37    18    1
    13    45    24    1
    14    13    12   ar
    15    13    33    1
    16     3     8    1
    17     3    10    1
    18     8     4    1
    19    24    46    1
    20    24     1    1
    21    38    19    1
    22    12    32    1
    23    18    19   ar
    24    18    17   ar
    25    19    20   ar
    26    43    23    1
    27    10     1    1
    28    10     9    2
    29     4    17    1
    30     4     9    1
    31    17    22   ar
    32     1    23    1
    33     1    25    1
    34    23    44    1
    35    23    42    1
    36    20    39    1
    37    20    21   ar
    38     9     5    1
    39    22    21   ar
    40    22    41    1
    41    21    40    1
    42    49    25    1
    43    25    50    1
    44    25    48    1
    45     5     2    1
    46     2     6    1
    47    30     7    1
    48    29     7    1
    49     6     7    1
    50     6    26    1
    51     6    27    1
    52     7    28    1
