@<TRIPOS>MOLECULE
1
 11 11 0 0 0
SMALL
GASTEIGER

@<TRIPOS>ATOM
      1 C           3.6959    9.4022    1.6983 C.ar    1  UNL1       -0.0179
      2 C           3.7900    8.4435    0.6755 C.ar    1  UNL1       -0.0540
      3 H           2.9236    7.8242    0.4372 H       1  UNL1        0.0624
      4 C           4.9498    8.2466   -0.0593 C.ar    1  UNL1       -0.0612
      5 H           4.9796    7.4959   -0.8386 H       1  UNL1        0.0618
      6 C           6.0737    9.0111    0.2031 C.ar    1  UNL1       -0.0617
      7 H           6.9800    8.8618   -0.3665 H       1  UNL1        0.0618
      8 C           6.0241    9.9679    1.2014 C.ar    1  UNL1       -0.0612
      9 H           6.8973   10.5705    1.4128 H       1  UNL1        0.0618
     10 C           4.8580   10.1556    1.9320 C.ar    1  UNL1       -0.0540
     11 H           4.8600   10.9192    2.7097 H       1  UNL1        0.0624
@<TRIPOS>BOND
     1     5     4    1
     2     7     6    1
     3     4     6   ar
     4     4     2   ar
     5     6     8   ar
     6     3     2    1
     7     2     1   ar
     8     8     9    1
     9     8    10   ar
    10     1    10   ar
    11    10    11    1
