@<TRIPOS>MOLECULE
2
 23 23 0 0 0
SMALL
GASTEIGER

@<TRIPOS>ATOM
      1 SI         10.9781   12.3364   18.3810 Si      1  UNL1        0.0000
      2 C           9.4732   13.4281   18.0810 C.3     1  UNL1        0.0000
      3 C          12.4077   12.5559   17.1163 C.3     1  UNL1        0.0000
      4 C          10.4510   10.4975   18.3120 C.3     1  UNL1        0.0000
      5 C          11.7526   12.7397   20.0776 C.ar    1  UNL1        0.0000
      6 C          12.0002   11.7647   21.0358 C.ar    1  UNL1        0.0000
      7 C          12.5594   12.0823   22.2610 C.ar    1  UNL1        0.0000
      8 C          12.8913   13.3940   22.5525 C.ar    1  UNL1        0.0000
      9 C          12.6672   14.3800   21.6066 C.ar    1  UNL1        0.0000
     10 C          12.1048   14.0503   20.3867 C.ar    1  UNL1        0.0000
     11 H           9.4188   13.6119   17.0021 H       1  UNL1        0.0000
     12 H           9.6374   14.4105   18.5402 H       1  UNL1        0.0000
     13 H          12.0645   12.3642   16.1043 H       1  UNL1        0.0000
     14 H          13.2310   11.8774   17.3187 H       1  UNL1        0.0000
     15 H          12.8042   13.5662   17.1420 H       1  UNL1        0.0000
     16 H           9.6820   10.2760   19.0518 H       1  UNL1        0.0000
     17 H          11.2848    9.8225   18.4814 H       1  UNL1        0.0000
     18 H          10.0432   10.2654   17.3309 H       1  UNL1        0.0000
     19 H          11.7554   10.7376   20.8140 H       1  UNL1        0.0000
     20 H          12.7414   11.3064   22.9916 H       1  UNL1        0.0000
     21 H          13.3295   13.6462   23.5078 H       1  UNL1        0.0000
     22 H          12.9351   15.4055   21.8213 H       1  UNL1        0.0000
     23 H          11.9414   14.8263   19.6513 H       1  UNL1        0.0000
@<TRIPOS>BOND
     1    13     3    1
     2    11     2    1
     3     3    15    1
     4     3    14    1
     5     3     1    1
     6    18     4    1
     7     2     1    1
     8     2    12    1
     9     4     1    1
    10     4    17    1
    11     4    16    1
    12     1     5    1
    13    23    10    1
    14     5    10   ar
    15     5     6   ar
    16    10     9   ar
    17    19     6    1
    18     6     7   ar
    19     9    22    1
    20     9     8   ar
    21     7     8   ar
    22     7    20    1
    23     8    21    1
