@<TRIPOS>MOLECULE
2
 23 23 0 0 0
SMALL
GASTEIGER

@<TRIPOS>ATOM
      1 SI          6.2540   11.6700   15.3239 Si      1  UNL1        0.0000
      2 C           6.5398   11.0746   17.0817 C.3     1  UNL1        0.0000
      3 C           4.7657   12.8750   15.2056 C.3     1  UNL1        0.0000
      4 C           7.7902   12.5883   14.6421 C.3     1  UNL1        0.0000
      5 C           5.8862   10.2444   14.1083 C.ar    1  UNL1        0.0000
      6 C           6.9263    9.5070   13.5500 C.ar    1  UNL1        0.0000
      7 C           6.6833    8.4404   12.7039 C.ar    1  UNL1        0.0000
      8 C           5.3814    8.0810   12.3990 C.ar    1  UNL1        0.0000
      9 C           4.3311    8.7946   12.9501 C.ar    1  UNL1        0.0000
     10 C           4.5862    9.8593   13.7956 C.ar    1  UNL1        0.0000
     11 H           7.2482   10.2355   17.0375 H       1  UNL1        0.0000
     12 H           5.6045   10.6421   17.4625 H       1  UNL1        0.0000
     13 H           3.8940   12.4825   15.7205 H       1  UNL1        0.0000
     14 H           4.4825   13.0510   14.1727 H       1  UNL1        0.0000
     15 H           5.0111   13.8337   15.6476 H       1  UNL1        0.0000
     16 H           7.8292   13.6105   15.0056 H       1  UNL1        0.0000
     17 H           7.7861   12.6246   13.5568 H       1  UNL1        0.0000
     18 H           8.7050   12.0935   14.9538 H       1  UNL1        0.0000
     19 H           7.9460    9.7787   13.7824 H       1  UNL1        0.0000
     20 H           7.5092    7.8856   12.2802 H       1  UNL1        0.0000
     21 H           5.1865    7.2487   11.7375 H       1  UNL1        0.0000
     22 H           3.3111    8.5183   12.7196 H       1  UNL1        0.0000
     23 H           3.7573   10.4073   14.2199 H       1  UNL1        0.0000
@<TRIPOS>BOND
     1    21     8    1
     2    20     7    1
     3     8     7   ar
     4     8     9   ar
     5     7     6   ar
     6    22     9    1
     7     9    10   ar
     8     6    19    1
     9     6     5   ar
    10    17     4    1
    11    10     5   ar
    12    10    23    1
    13     5     1    1
    14    14     3    1
    15     4    18    1
    16     4    16    1
    17     4     1    1
    18     3     1    1
    19     3    15    1
    20     3    13    1
    21     1     2    1
    22    11     2    1
    23     2    12    1
