@<TRIPOS>MOLECULE
2
 16 15 0 0 0
SMALL
GASTEIGER

@<TRIPOS>ATOM
      1 SI          4.9730   15.3720    4.5279 Si      1  UNL1        0.0000
      2 C           3.3547   15.9580    5.2985 C.3     1  UNL1        0.0000
      3 H           3.1105   16.9392    4.8563 H       1  UNL1        0.0000
      4 H           3.6037   16.1925    6.3510 H       1  UNL1        0.0000
      5 C           5.1502   13.4660    4.7204 C.3     1  UNL1        0.0000
      6 H           5.9473   13.2226    5.4155 H       1  UNL1        0.0000
      7 H           5.3833   12.9790    3.7784 H       1  UNL1        0.0000
      8 H           4.2314   13.0224    5.1108 H       1  UNL1        0.0000
      9 C           5.0548   15.8036    2.6543 C.3     1  UNL1        0.0000
     10 H           4.3058   15.2767    2.0707 H       1  UNL1        0.0000
     11 H           6.0249   15.5421    2.2434 H       1  UNL1        0.0000
     12 H           4.9115   16.8677    2.4913 H       1  UNL1        0.0000
     13 C           6.5532   16.1313    5.3087 C.3     1  UNL1        0.0000
     14 H           6.5643   17.2133    5.2160 H       1  UNL1        0.0000
     15 H           7.4584   15.7530    4.8424 H       1  UNL1        0.0000
     16 H           6.6064   15.8918    6.3673 H       1  UNL1        0.0000
@<TRIPOS>BOND
     1    10     9    1
     2    11     9    1
     3    12     9    1
     4     9     1    1
     5     7     5    1
     6     1     5    1
     7     1     2    1
     8     1    13    1
     9     5     8    1
    10     5     6    1
    11    15    13    1
    12     3     2    1
    13    14    13    1
    14     2     4    1
    15    13    16    1
