@<TRIPOS>MOLECULE
2
 16 15 0 0 0
SMALL
GASTEIGER

@<TRIPOS>ATOM
      1 SI         -0.2592   17.0276    7.5888 Si      1  UNL1        0.0000
      2 C          -0.3665   15.3302    6.7800 C.3     1  UNL1        0.0000
      3 H          -1.2847   15.2892    6.1689 H       1  UNL1        0.0000
      4 H          -0.5242   14.6034    7.5979 H       1  UNL1        0.0000
      5 C           0.0167   18.3631    6.2376 C.3     1  UNL1        0.0000
      6 H           0.8535   18.0934    5.5962 H       1  UNL1        0.0000
      7 H           0.2314   19.3338    6.6725 H       1  UNL1        0.0000
      8 H          -0.8618   18.4770    5.6093 H       1  UNL1        0.0000
      9 C          -1.7823   17.5868    8.6162 C.3     1  UNL1        0.0000
     10 H          -2.6843   17.5986    8.0113 H       1  UNL1        0.0000
     11 H          -1.6499   18.5848    9.0236 H       1  UNL1        0.0000
     12 H          -1.9576   16.9136    9.4500 H       1  UNL1        0.0000
     13 C           1.2509   17.0421    8.7688 C.3     1  UNL1        0.0000
     14 H           1.2090   16.2048    9.4607 H       1  UNL1        0.0000
     15 H           1.3016   17.9524    9.3575 H       1  UNL1        0.0000
     16 H           2.1763   16.9606    8.2034 H       1  UNL1        0.0000
@<TRIPOS>BOND
     1     6     5    1
     2     8     5    1
     3     3     2    1
     4     5     7    1
     5     5     1    1
     6     2     1    1
     7     2     4    1
     8     1     9    1
     9     1    13    1
    10    10     9    1
    11    16    13    1
    12     9    11    1
    13     9    12    1
    14    13    15    1
    15    13    14    1
