@<TRIPOS>MOLECULE
1
 4 3 0 0 0
SMALL
GASTEIGER

@<TRIPOS>ATOM
      1 C           2.4336    1.9816   -0.9433 C.3     1  UNL1       -0.0681
      2 H           3.4044    1.5346   -1.1837 H       1  UNL1        0.0227
      3 H           2.0438    2.3988   -1.8740 H       1  UNL1        0.0227
      4 H           1.7713    1.1557   -0.6864 H       1  UNL1        0.0227
@<TRIPOS>BOND
     1     3     1    1
     2     2     1    1
     3     1     4    1
