@<TRIPOS>MOLECULE
7
 48 48 0 0 0
SMALL
GASTEIGER

@<TRIPOS>ATOM
      1 SI          8.7656    8.5435   11.1184 Si      1  UNL1        0.0000
      2 H           9.7099    8.7502   12.2583 H       1  UNL1        0.0000
      3 SI         10.7541    6.3654   10.4039 Si      1  UNL1        0.0000
      4 SI          7.8237    6.2564    9.1168 Si      1  UNL1        0.0000
      5 SI          8.1927    5.7301   12.2384 Si      1  UNL1        0.0000
      6 N           7.2103    8.8668   11.9409 N.3     1  UNL1        0.0000
      7 C           6.7421    9.8062   11.2587 C.3     1  UNL1        0.0000
      8 C           5.3513   10.3148   11.4637 C.3     1  UNL1        0.0000
      9 H           4.6855    9.7426   10.8149 H       1  UNL1        0.0000
     10 H           5.2371   11.3647   11.2110 H       1  UNL1        0.0000
     11 H           5.0495   10.1417   12.4971 H       1  UNL1        0.0000
     12 C           8.8727    6.6734   10.6881 C.3     1  UNL1        0.0000
     13 C          11.5577    7.7851    9.4106 C.3     1  UNL1        0.0000
     14 H          11.6828    8.6592   10.0410 H       1  UNL1        0.0000
     15 H          10.9552    8.0837    8.5625 H       1  UNL1        0.0000
     16 H          12.5391    7.5058    9.0382 H       1  UNL1        0.0000
     17 C          11.1380    4.7323    9.4937 C.3     1  UNL1        0.0000
     18 H          10.7504    4.7346    8.4819 H       1  UNL1        0.0000
     19 H          10.7156    3.8786   10.0091 H       1  UNL1        0.0000
     20 H          12.2109    4.5772    9.4325 H       1  UNL1        0.0000
     21 C          11.7662    6.3241   12.0257 C.3     1  UNL1        0.0000
     22 H          12.8263    6.2276   11.8092 H       1  UNL1        0.0000
     23 H          11.4896    5.4947   12.6652 H       1  UNL1        0.0000
     24 H          11.6333    7.2386   12.5928 H       1  UNL1        0.0000
     25 C           7.5807    4.3747    8.8697 C.3     1  UNL1        0.0000
     26 H           7.0018    3.9337    9.6730 H       1  UNL1        0.0000
     27 H           8.5216    3.8427    8.8103 H       1  UNL1        0.0000
     28 H           7.0442    4.1891    7.9441 H       1  UNL1        0.0000
     29 C           8.6105    6.9036    7.5013 C.3     1  UNL1        0.0000
     30 H           8.0122    6.6038    6.6458 H       1  UNL1        0.0000
     31 H           9.6146    6.5276    7.3438 H       1  UNL1        0.0000
     32 H           8.6508    7.9887    7.5043 H       1  UNL1        0.0000
     33 C           6.0650    7.0017    9.1689 C.3     1  UNL1        0.0000
     34 H           6.0078    7.7955    9.9040 H       1  UNL1        0.0000
     35 H           5.3107    6.2643    9.4205 H       1  UNL1        0.0000
     36 H           5.7962    7.4278    8.2076 H       1  UNL1        0.0000
     37 C           8.8051    3.9191   12.2773 C.3     1  UNL1        0.0000
     38 H           8.3273    3.3816   13.0899 H       1  UNL1        0.0000
     39 H           9.8756    3.8553   12.4311 H       1  UNL1        0.0000
     40 H           8.5734    3.3936   11.3601 H       1  UNL1        0.0000
     41 C           6.2868    5.6889   12.2884 C.3     1  UNL1        0.0000
     42 H           5.8622    5.1067   11.4796 H       1  UNL1        0.0000
     43 H           5.8959    6.6971   12.2193 H       1  UNL1        0.0000
     44 H           5.9338    5.2604   13.2218 H       1  UNL1        0.0000
     45 C           8.7003    6.5130   13.9044 C.3     1  UNL1        0.0000
     46 H           8.2301    7.4831   14.0104 H       1  UNL1        0.0000
     47 H           9.7703    6.6475   13.9981 H       1  UNL1        0.0000
     48 H           8.3747    5.8934   14.7350 H       1  UNL1        0.0000
@<TRIPOS>BOND
     1    30    29    1
     2    31    29    1
     3    29    32    1
     4    29     4    1
     5    28    25    1
     6    36    33    1
     7    18    17    1
     8    15    13    1
     9    27    25    1
    10    25     4    1
    11    25    26    1
    12    16    13    1
    13     4    33    1
    14     4    12    1
    15    33    35    1
    16    33    34    1
    17    13    14    1
    18    13     3    1
    19    20    17    1
    20    17    19    1
    21    17     3    1
    22     3    12    1
    23     3    21    1
    24    12     1    1
    25    12     5    1
    26     9     8    1
    27     1     6    1
    28     1     2    1
    29    10     8    1
    30     7     8    1
    31     7     6    1
    32    40    37    1
    33     8    11    1
    34    42    41    1
    35    22    21    1
    36    21    24    1
    37    21    23    1
    38    43    41    1
    39     5    37    1
    40     5    41    1
    41     5    45    1
    42    37    39    1
    43    37    38    1
    44    41    44    1
    45    45    47    1
    46    45    46    1
    47    45    48    1
    48     1     7    0
