@<TRIPOS>MOLECULE
1
 16 15 0 0 0
SMALL
GASTEIGER

@<TRIPOS>ATOM
      1 C           2.5998    1.1979   12.9413 C.3     1  UNL1        0.0000
      2 C           1.5767   -1.5729   13.9578 C.3     1  UNL1        0.0000
      3 C           0.1775    1.0745   14.9444 C.3     1  UNL1        0.0000
      4 C           3.0268    0.3770   15.9014 C.3     1  UNL1        0.0000
      5 SI          1.8248    0.2629   14.4060 Si      1  UNL1        0.0000
      6 H           2.7110    2.2615   13.1833 H       1  UNL1        0.0000
      7 H           3.6121    0.8121   12.7877 H       1  UNL1        0.0000
      8 H           0.9862   -2.1050   14.6979 H       1  UNL1        0.0000
      9 H           1.0630   -1.6309   12.9984 H       1  UNL1        0.0000
     10 H           2.5265   -2.0905   13.8562 H       1  UNL1        0.0000
     11 H          -0.2030    0.6351   15.8612 H       1  UNL1        0.0000
     12 H           0.2816    2.1437   15.1093 H       1  UNL1        0.0000
     13 H          -0.5636    0.9203   14.1666 H       1  UNL1        0.0000
     14 H           2.6303   -0.1602   16.7556 H       1  UNL1        0.0000
     15 H           3.9961   -0.0504   15.6678 H       1  UNL1        0.0000
     16 H           3.1865    1.4054   16.2083 H       1  UNL1        0.0000
@<TRIPOS>BOND
     1     7     1    1
     2     1     6    1
     3     1     5    1
     4     9     2    1
     5    10     2    1
     6     2     5    1
     7     2     8    1
     8    13     3    1
     9     5     3    1
    10     5     4    1
    11     3    12    1
    12     3    11    1
    13    15     4    1
    14     4    16    1
    15     4    14    1
