@<TRIPOS>MOLECULE
1
 16 15 0 0 0
SMALL
GASTEIGER

@<TRIPOS>ATOM
      1 C           0.7749    1.2237    9.0743 C.3     1  UNL1        0.0000
      2 C          -2.3119    1.1086    9.6685 C.3     1  UNL1        0.0000
      3 C          -0.6741   -1.5421    9.1867 C.3     1  UNL1        0.0000
      4 C          -1.2421    0.4355    6.8536 C.3     1  UNL1        0.0000
      5 SI         -0.8528    0.2998    8.7309 Si      1  UNL1        0.0000
      6 H           1.5354    0.8420    8.3864 H       1  UNL1        0.0000
      7 H           0.6638    2.2904    8.8466 H       1  UNL1        0.0000
      8 H          -3.2637    0.6783    9.3731 H       1  UNL1        0.0000
      9 H          -2.1846    0.9410   10.7332 H       1  UNL1        0.0000
     10 H          -2.3666    2.1803    9.4961 H       1  UNL1        0.0000
     11 H          -1.6242   -2.0680    9.1700 H       1  UNL1        0.0000
     12 H           0.0021   -2.0568    8.5098 H       1  UNL1        0.0000
     13 H          -0.2567   -1.6138   10.1910 H       1  UNL1        0.0000
     14 H          -2.1568   -0.0940    6.6114 H       1  UNL1        0.0000
     15 H          -1.3716    1.4678    6.5455 H       1  UNL1        0.0000
     16 H          -0.4482    0.0095    6.2496 H       1  UNL1        0.0000
@<TRIPOS>BOND
     1    16     4    1
     2    15     4    1
     3    14     4    1
     4     4     5    1
     5     6     1    1
     6    12     3    1
     7     5     1    1
     8     5     3    1
     9     5     2    1
    10     7     1    1
    11    11     3    1
    12     3    13    1
    13     8     2    1
    14    10     2    1
    15     2     9    1
