@<TRIPOS>MOLECULE
2
 16 15 0 0 0
SMALL
GASTEIGER

@<TRIPOS>ATOM
      1 SI          6.7754   10.1906    6.4323 Si      1  UNL1        0.0000
      2 C           5.3958    9.0151    5.9018 C.3     1  UNL1        0.0000
      3 H           5.7847    8.2764    5.1939 H       1  UNL1        0.0000
      4 H           4.9726    8.4738    6.7504 H       1  UNL1        0.0000
      5 C           6.1241   12.0030    6.3610 C.3     1  UNL1        0.0000
      6 H           5.9513   12.2777    5.3190 H       1  UNL1        0.0000
      7 H           6.8369   12.7135    6.7724 H       1  UNL1        0.0000
      8 H           5.1921   12.1171    6.9190 H       1  UNL1        0.0000
      9 C           8.2940   10.0901    5.2714 C.3     1  UNL1        0.0000
     10 H           8.8038    9.1371    5.3712 H       1  UNL1        0.0000
     11 H           9.0160   10.8725    5.4849 H       1  UNL1        0.0000
     12 H           7.9845   10.1945    4.2355 H       1  UNL1        0.0000
     13 C           7.3828    9.8951    8.2309 C.3     1  UNL1        0.0000
     14 H           6.5985   10.0795    8.9579 H       1  UNL1        0.0000
     15 H           8.2149   10.5477    8.4731 H       1  UNL1        0.0000
     16 H           7.7215    8.8732    8.3645 H       1  UNL1        0.0000
@<TRIPOS>BOND
     1    12     9    1
     2     3     2    1
     3     9    10    1
     4     9    11    1
     5     9     1    1
     6     6     5    1
     7     2     1    1
     8     2     4    1
     9     5     1    1
    10     5     7    1
    11     5     8    1
    12     1    13    1
    13    13    16    1
    14    13    15    1
    15    13    14    1
