@<TRIPOS>MOLECULE
2
 16 15 0 0 0
SMALL
GASTEIGER

@<TRIPOS>ATOM
      1 SI          3.0076    7.1318    3.6922 Si      1  UNL1        0.0000
      2 C           2.5352    8.8934    4.1893 C.3     1  UNL1        0.0000
      3 H           2.2313    9.4192    3.2771 H       1  UNL1        0.0000
      4 H           1.6595    8.8740    4.8525 H       1  UNL1        0.0000
      5 C           1.5253    6.2767    2.8110 C.3     1  UNL1        0.0000
      6 H           0.6558    6.2218    3.4592 H       1  UNL1        0.0000
      7 H           1.7732    5.2631    2.5129 H       1  UNL1        0.0000
      8 H           1.2333    6.8192    1.9175 H       1  UNL1        0.0000
      9 C           3.4133    6.0246    5.2078 C.3     1  UNL1        0.0000
     10 H           4.3634    6.2879    5.6604 H       1  UNL1        0.0000
     11 H           3.4694    4.9808    4.9146 H       1  UNL1        0.0000
     12 H           2.6471    6.1058    5.9722 H       1  UNL1        0.0000
     13 C           4.4728    7.0928    2.4641 C.3     1  UNL1        0.0000
     14 H           4.2397    7.6641    1.5705 H       1  UNL1        0.0000
     15 H           4.7094    6.0783    2.1567 H       1  UNL1        0.0000
     16 H           5.3689    7.5297    2.8961 H       1  UNL1        0.0000
@<TRIPOS>BOND
     1    14    13    1
     2     8     5    1
     3    15    13    1
     4    13    16    1
     5    13     1    1
     6     7     5    1
     7     5     6    1
     8     5     1    1
     9     3     2    1
    10     1     2    1
    11     1     9    1
    12     2     4    1
    13    11     9    1
    14     9    10    1
    15     9    12    1
