@<TRIPOS>MOLECULE
1
 4 3 0 0 0
SMALL
GASTEIGER

@<TRIPOS>ATOM
      1 C           5.5499   -1.3848    3.0979 C.3     1  UNL1       -0.0681
      2 H           6.3592   -2.1101    2.9395 H       1  UNL1        0.0227
      3 H           6.0466   -0.4286    3.3204 H       1  UNL1        0.0227
      4 H           5.0666   -1.2560    2.1182 H       1  UNL1        0.0227
@<TRIPOS>BOND
     1     4     1    1
     2     2     1    1
     3     1     3    1
