@<TRIPOS>MOLECULE
2
 16 15 0 0 0
SMALL
GASTEIGER

@<TRIPOS>ATOM
      1 SI          3.4512   -4.9565    2.8754 Si      1  UNL1        0.0000
      2 C           2.8822   -3.2714    3.4935 C.3     1  UNL1        0.0000
      3 H           2.6158   -2.6699    2.6173 H       1  UNL1        0.0000
      4 H           1.9652   -3.3808    4.0919 H       1  UNL1        0.0000
      5 C           2.1351   -5.7893    1.7437 C.3     1  UNL1        0.0000
      6 H           1.2047   -5.9589    2.2774 H       1  UNL1        0.0000
      7 H           2.4761   -6.7501    1.3707 H       1  UNL1        0.0000
      8 H           1.9082   -5.1656    0.8847 H       1  UNL1        0.0000
      9 C           3.7837   -6.2059    4.2934 C.3     1  UNL1        0.0000
     10 H           4.6450   -5.9154    4.8864 H       1  UNL1        0.0000
     11 H           3.9767   -7.1993    3.8998 H       1  UNL1        0.0000
     12 H           2.9302   -6.2814    4.9601 H       1  UNL1        0.0000
     13 C           5.0408   -4.7705    1.8218 C.3     1  UNL1        0.0000
     14 H           4.9089   -4.0099    1.0577 H       1  UNL1        0.0000
     15 H           5.3022   -5.6981    1.3217 H       1  UNL1        0.0000
     16 H           5.8862   -4.4742    2.4365 H       1  UNL1        0.0000
@<TRIPOS>BOND
     1     8     5    1
     2    14    13    1
     3    15    13    1
     4     7     5    1
     5     5     6    1
     6     5     1    1
     7    13    16    1
     8    13     1    1
     9     3     2    1
    10     1     2    1
    11     1     9    1
    12     2     4    1
    13    11     9    1
    14     9    10    1
    15     9    12    1
