@<TRIPOS>MOLECULE
2
 16 15 0 0 0
SMALL
GASTEIGER

@<TRIPOS>ATOM
      1 SI          6.7480   -2.0311    6.4898 Si      1  UNL1        0.0000
      2 C           5.5944   -3.1677    5.5213 C.3     1  UNL1        0.0000
      3 H           6.1639   -3.7814    4.8160 H       1  UNL1        0.0000
      4 H           5.0681   -3.8530    6.1919 H       1  UNL1        0.0000
      5 C           5.9199   -0.3146    6.7738 C.3     1  UNL1        0.0000
      6 H           5.5714    0.0940    5.8221 H       1  UNL1        0.0000
      7 H           6.6088    0.4023    7.2134 H       1  UNL1        0.0000
      8 H           5.0643   -0.3918    7.4421 H       1  UNL1        0.0000
      9 C           8.3843   -1.7075    5.5409 C.3     1  UNL1        0.0000
     10 H           8.9511   -2.6248    5.4174 H       1  UNL1        0.0000
     11 H           9.0180   -1.0030    6.0707 H       1  UNL1        0.0000
     12 H           8.1941   -1.3027    4.5522 H       1  UNL1        0.0000
     13 C           7.2588   -2.6871    8.2246 C.3     1  UNL1        0.0000
     14 H           6.4051   -2.7790    8.8879 H       1  UNL1        0.0000
     15 H           7.9738   -2.0244    8.7021 H       1  UNL1        0.0000
     16 H           7.7226   -3.6657    8.1500 H       1  UNL1        0.0000
@<TRIPOS>BOND
     1    12     9    1
     2     3     2    1
     3    10     9    1
     4     2     4    1
     5     2     1    1
     6     9    11    1
     7     9     1    1
     8     6     5    1
     9     1     5    1
    10     1    13    1
    11     5     7    1
    12     5     8    1
    13    16    13    1
    14    13    15    1
    15    13    14    1
