@<TRIPOS>MOLECULE
2
 23 22 0 0 0
SMALL
GASTEIGER

@<TRIPOS>ATOM
      1 SI          2.8769   11.3990   15.3731 Si      1  UNL1        0.0000
      2 C           1.1605   11.3551   14.5779 C.2     1  UNL1        0.0000
      3 C           0.6888   10.3913   13.7806 C.2     1  UNL1        0.0000
      4 C          -0.7114   10.4592   13.2096 C.3     1  UNL1        0.0000
      5 C           1.4293    9.1589   13.3436 C.3     1  UNL1        0.0000
      6 C           2.8800   13.1548   16.2431 C.3     1  UNL1        0.0000
      7 H           2.9836   13.0538   17.3225 H       1  UNL1        0.0000
      8 H           3.7366   13.7336   15.9043 H       1  UNL1        0.0000
      9 H           1.9743   13.7676   16.0379 H       1  UNL1        0.0000
     10 C           3.1174   10.1231   16.7805 C.3     1  UNL1        0.0000
     11 C           4.4052   11.3907   14.2251 C.3     1  UNL1        0.0000
     12 H          -1.2850   11.3023   13.6278 H       1  UNL1        0.0000
     13 H          -0.6644   10.5560   12.1237 H       1  UNL1        0.0000
     14 H          -1.2438    9.5328   13.4221 H       1  UNL1        0.0000
     15 H           2.4462    9.1505   13.7200 H       1  UNL1        0.0000
     16 H           0.9138    8.2713   13.7076 H       1  UNL1        0.0000
     17 H           1.4535    9.0990   12.2568 H       1  UNL1        0.0000
     18 H           4.0753   10.2643   17.2718 H       1  UNL1        0.0000
     19 H           2.3433   10.1976   17.5394 H       1  UNL1        0.0000
     20 H           3.0987    9.1090   16.3966 H       1  UNL1        0.0000
     21 H           4.5699   10.4117   13.7888 H       1  UNL1        0.0000
     22 H           4.3033   12.0981   13.4079 H       1  UNL1        0.0000
     23 H           5.3031   11.6517   14.7773 H       1  UNL1        0.0000
@<TRIPOS>BOND
     1    13     4    1
     2    17     5    1
     3     4    14    1
     4     4    12    1
     5     4     3    1
     6     5    16    1
     7     5    15    1
     8     5     3    1
     9    22    11    1
    10     3     2    2
    11    21    11    1
    12    11    23    1
    13    11     1    1
    14     2     1    1
    15     1     6    1
    16     1    10    1
    17     8     6    1
    18     9     6    1
    19     6     7    1
    20    20    10    1
    21    10    18    1
    22    10    19    1
