@<TRIPOS>MOLECULE
1
 4 3 0 0 0
SMALL
GASTEIGER

@<TRIPOS>ATOM
      1 C           2.8706    5.7309    5.0108 C.3     1  UNL1       -0.0091
      2 C           2.9142    6.5297    6.0361 C.3     1  UNL1       -0.0452
      3 H           2.0704    6.6807    6.6945 H       1  UNL1        0.0271
      4 H           3.8002    7.0920    6.2938 H       1  UNL1        0.0271
@<TRIPOS>BOND
     1     1     2    1
     2     2     4    1
     3     2     3    1
