@<TRIPOS>MOLECULE
2
 16 15 0 0 0
SMALL
GASTEIGER

@<TRIPOS>ATOM
      1 SI          9.4005    3.8313    3.7142 Si      1  UNL1        0.0000
      2 C          10.4378    5.4240    3.8858 C.3     1  UNL1        0.0000
      3 C           9.0124    3.3578    1.8912 C.3     1  UNL1        0.0000
      4 C          10.3075    2.3362    4.4986 C.3     1  UNL1        0.0000
      5 C           7.7221    4.0200    4.6207 C.3     1  UNL1        0.0000
      6 H          11.3924    5.1509    4.3410 H       1  UNL1        0.0000
      7 H           9.9306    6.0903    4.5972 H       1  UNL1        0.0000
      8 H           8.2127    2.6234    1.8399 H       1  UNL1        0.0000
      9 H           8.6979    4.2319    1.3138 H       1  UNL1        0.0000
     10 H           9.8807    2.9217    1.4027 H       1  UNL1        0.0000
     11 H           9.7193    1.4307    4.3956 H       1  UNL1        0.0000
     12 H          11.2678    2.1601    4.0251 H       1  UNL1        0.0000
     13 H          10.4855    2.4896    5.5579 H       1  UNL1        0.0000
     14 H           7.1365    3.1099    4.5445 H       1  UNL1        0.0000
     15 H           7.8634    4.2274    5.6764 H       1  UNL1        0.0000
     16 H           7.1331    4.8285    4.2005 H       1  UNL1        0.0000
@<TRIPOS>BOND
     1     9     3    1
     2    10     3    1
     3     8     3    1
     4     3     1    1
     5     1     2    1
     6     1     4    1
     7     1     5    1
     8     2     6    1
     9     2     7    1
    10    12     4    1
    11    16     5    1
    12    11     4    1
    13     4    13    1
    14    14     5    1
    15     5    15    1
