@<TRIPOS>MOLECULE
2
 16 15 0 0 0
SMALL
GASTEIGER

@<TRIPOS>ATOM
      1 SI         10.1634    4.9112    2.5344 Si      1  UNL1        0.0000
      2 C          10.7720    3.7064    3.8808 C.3     1  UNL1        0.0000
      3 C           8.4961    5.7367    2.9747 C.3     1  UNL1        0.0000
      4 C           9.9804    3.9119    0.9102 C.3     1  UNL1        0.0000
      5 C          11.4491    6.3028    2.2225 C.3     1  UNL1        0.0000
      6 H          11.3888    4.2538    4.6075 H       1  UNL1        0.0000
      7 H          11.4285    2.9663    3.3998 H       1  UNL1        0.0000
      8 H           8.5973    6.4143    3.8171 H       1  UNL1        0.0000
      9 H           8.0986    6.3074    2.1403 H       1  UNL1        0.0000
     10 H           7.7653    4.9763    3.2521 H       1  UNL1        0.0000
     11 H           9.4415    2.9903    1.1068 H       1  UNL1        0.0000
     12 H           9.4251    4.4667    0.1616 H       1  UNL1        0.0000
     13 H          10.9437    3.6538    0.4809 H       1  UNL1        0.0000
     14 H          12.4205    5.9006    1.9525 H       1  UNL1        0.0000
     15 H          11.1283    6.9500    1.4133 H       1  UNL1        0.0000
     16 H          11.5839    6.9241    3.1021 H       1  UNL1        0.0000
@<TRIPOS>BOND
     1    12     4    1
     2    13     4    1
     3     4    11    1
     4     4     1    1
     5    15     5    1
     6    14     5    1
     7     9     3    1
     8     5     1    1
     9     5    16    1
    10     1     3    1
    11     1     2    1
    12     3    10    1
    13     3     8    1
    14     7     2    1
    15     2     6    1
