@<TRIPOS>MOLECULE
2
 16 15 0 0 0
SMALL
GASTEIGER

@<TRIPOS>ATOM
      1 SI          3.6729   -1.6840    2.9622 Si      1  UNL1        0.0000
      2 C           3.7502   -0.1770    4.1067 C.3     1  UNL1        0.0000
      3 C           4.5134   -3.1895    3.8145 C.3     1  UNL1        0.0000
      4 C           4.6533   -1.4040    1.3321 C.3     1  UNL1        0.0000
      5 C           1.8983   -2.2261    2.4998 C.3     1  UNL1        0.0000
      6 H           4.7618    0.2390    4.0797 H       1  UNL1        0.0000
      7 H           3.5800   -0.5109    5.1290 H       1  UNL1        0.0000
      8 H           4.5209   -4.0566    3.1619 H       1  UNL1        0.0000
      9 H           3.9906   -3.4707    4.7233 H       1  UNL1        0.0000
     10 H           5.5432   -2.9751    4.0836 H       1  UNL1        0.0000
     11 H           4.6652   -2.3100    0.7337 H       1  UNL1        0.0000
     12 H           5.6885   -1.1370    1.5286 H       1  UNL1        0.0000
     13 H           4.2123   -0.6218    0.7209 H       1  UNL1        0.0000
     14 H           1.9084   -3.0657    1.8105 H       1  UNL1        0.0000
     15 H           1.3520   -1.4118    2.0333 H       1  UNL1        0.0000
     16 H           1.3371   -2.5270    3.3788 H       1  UNL1        0.0000
@<TRIPOS>BOND
     1    13     4    1
     2    11     4    1
     3     4    12    1
     4     4     1    1
     5    14     5    1
     6    15     5    1
     7     5     1    1
     8     5    16    1
     9     1     3    1
    10     1     2    1
    11     8     3    1
    12     3    10    1
    13     3     9    1
    14     6     2    1
    15     2     7    1
