@<TRIPOS>MOLECULE
2
 16 15 0 0 0
SMALL
GASTEIGER

@<TRIPOS>ATOM
      1 SI         11.2213   -0.6197   10.0369 Si      1  UNL1        0.0000
      2 C          10.5648   -0.1561   11.7454 C.3     1  UNL1        0.0000
      3 C           9.9081   -1.2299    8.7765 C.3     1  UNL1        0.0000
      4 C          12.1480    0.8094    9.1562 C.3     1  UNL1        0.0000
      5 C          12.4742   -2.0694   10.1912 C.3     1  UNL1        0.0000
      6 H          11.3376    0.4306   12.2524 H       1  UNL1        0.0000
      7 H          10.4773   -1.0844   12.3195 H       1  UNL1        0.0000
      8 H           9.1584   -0.4705    8.5739 H       1  UNL1        0.0000
      9 H          10.3820   -1.4757    7.8302 H       1  UNL1        0.0000
     10 H           9.3978   -2.1248    9.1209 H       1  UNL1        0.0000
     11 H          12.9365    1.2158    9.7813 H       1  UNL1        0.0000
     12 H          12.6118    0.4501    8.2419 H       1  UNL1        0.0000
     13 H          11.4871    1.6267    8.8854 H       1  UNL1        0.0000
     14 H          12.0029   -2.9586   10.6018 H       1  UNL1        0.0000
     15 H          12.8950   -2.3398    9.2274 H       1  UNL1        0.0000
     16 H          13.2998   -1.8071   10.8459 H       1  UNL1        0.0000
@<TRIPOS>BOND
     1     9     3    1
     2    12     4    1
     3     8     3    1
     4     3    10    1
     5     3     1    1
     6    13     4    1
     7     4    11    1
     8     4     1    1
     9    15     5    1
    10     1     5    1
    11     1     2    1
    12     5    14    1
    13     5    16    1
    14     2     6    1
    15     2     7    1
