@<TRIPOS>MOLECULE
2
 16 15 0 0 0
SMALL
GASTEIGER

@<TRIPOS>ATOM
      1 SI          1.7655    3.2946    0.8042 Si      1  UNL1        0.0000
      2 C           2.1987    1.6515    1.6227 C.3     1  UNL1        0.0000
      3 C           3.2718    4.4817    0.6726 C.3     1  UNL1        0.0000
      4 C           0.3727    4.2712    1.6964 C.3     1  UNL1        0.0000
      5 C           1.1607    3.0273   -0.9975 C.3     1  UNL1        0.0000
      6 H           3.1951    1.3580    1.2755 H       1  UNL1        0.0000
      7 H           1.5122    0.8835    1.2577 H       1  UNL1        0.0000
      8 H           3.0870    5.2546   -0.0677 H       1  UNL1        0.0000
      9 H           4.1717    3.9534    0.3694 H       1  UNL1        0.0000
     10 H           3.4874    4.9814    1.6129 H       1  UNL1        0.0000
     11 H           0.4501    4.1946    2.7774 H       1  UNL1        0.0000
     12 H          -0.6088    3.9032    1.4136 H       1  UNL1        0.0000
     13 H           0.4097    5.3257    1.4353 H       1  UNL1        0.0000
     14 H           0.8700    3.9644   -1.4625 H       1  UNL1        0.0000
     15 H           0.2998    2.3665   -1.0272 H       1  UNL1        0.0000
     16 H           1.9351    2.5821   -1.6150 H       1  UNL1        0.0000
@<TRIPOS>BOND
     1    16     5    1
     2    14     5    1
     3    15     5    1
     4     5     1    1
     5     8     3    1
     6     9     3    1
     7     3     1    1
     8     3    10    1
     9     1     2    1
    10     1     4    1
    11     7     2    1
    12     6     2    1
    13    12     4    1
    14    13     4    1
    15     4    11    1
