@<TRIPOS>MOLECULE
2
 16 15 0 0 0
SMALL
GASTEIGER

@<TRIPOS>ATOM
      1 SI          9.3356   -0.1452   15.4595 Si      1  UNL1        0.0000
      2 C           7.9974    0.0095   14.1288 C.3     1  UNL1        0.0000
      3 C           8.5326   -0.1503   17.2065 C.3     1  UNL1        0.0000
      4 C          10.2929   -1.8075   15.3279 C.3     1  UNL1        0.0000
      5 C          10.6148    1.2772   15.4363 C.3     1  UNL1        0.0000
      6 H           7.2222    0.6816   14.4984 H       1  UNL1        0.0000
      7 H           7.5183   -0.9648   13.9838 H       1  UNL1        0.0000
      8 H           9.2824   -0.2557   17.9841 H       1  UNL1        0.0000
      9 H           7.9943    0.7731   17.3960 H       1  UNL1        0.0000
     10 H           7.8276   -0.9683   17.3204 H       1  UNL1        0.0000
     11 H          10.9497   -1.9389   16.1826 H       1  UNL1        0.0000
     12 H           9.6163   -2.6583   15.3104 H       1  UNL1        0.0000
     13 H          10.9140   -1.8509   14.4377 H       1  UNL1        0.0000
     14 H          10.1403    2.2362   15.6195 H       1  UNL1        0.0000
     15 H          11.3787    1.1358   16.1959 H       1  UNL1        0.0000
     16 H          11.1057    1.3420   14.4693 H       1  UNL1        0.0000
@<TRIPOS>BOND
     1     7     2    1
     2     2     6    1
     3     2     1    1
     4    13     4    1
     5    16     5    1
     6    12     4    1
     7     4     1    1
     8     4    11    1
     9     5     1    1
    10     5    14    1
    11     5    15    1
    12     1     3    1
    13     3    10    1
    14     3     9    1
    15     3     8    1
