@<TRIPOS>MOLECULE
2
 15 14 0 0 0
SMALL
GASTEIGER

@<TRIPOS>ATOM
      1 SI          0.7650    5.1892   10.7209 Si      1  UNL1        0.0000
      2 C           1.1137    6.8918   11.4144 C.3     1  UNL1        0.0000
      3 H           2.2048    6.9762   11.3753 H       1  UNL1        0.0000
      4 C           2.2558    4.6770    9.6300 C.3     1  UNL1        0.0000
      5 H           2.0719    3.7409    9.1114 H       1  UNL1        0.0000
      6 H           3.1475    4.5411   10.2338 H       1  UNL1        0.0000
      7 H           2.4826    5.4274    8.8778 H       1  UNL1        0.0000
      8 C           0.6292    3.8444   12.0862 C.3     1  UNL1        0.0000
      9 H           0.8970    2.8702   11.6878 H       1  UNL1        0.0000
     10 H          -0.3773    3.7651   12.4847 H       1  UNL1        0.0000
     11 H           1.3021    4.0531   12.9123 H       1  UNL1        0.0000
     12 C          -0.7856    4.9776    9.6079 C.3     1  UNL1        0.0000
     13 H          -0.5673    5.2250    8.5741 H       1  UNL1        0.0000
     14 H          -1.6171    5.5936    9.9276 H       1  UNL1        0.0000
     15 H          -1.1177    3.9440    9.6277 H       1  UNL1        0.0000
@<TRIPOS>BOND
     1    13    12    1
     2     7     4    1
     3     5     4    1
     4    12    15    1
     5    12    14    1
     6    12     1    1
     7     4     6    1
     8     4     1    1
     9     1     2    1
    10     1     8    1
    11     3     2    1
    12     9     8    1
    13     8    10    1
    14     8    11    1
