@<TRIPOS>MOLECULE
2
 15 14 0 0 0
SMALL
GASTEIGER

@<TRIPOS>ATOM
      1 SI          3.1061   11.8300   12.3334 Si      1  UNL1        0.0000
      2 C           2.9720   11.0013   10.6792 C.3     1  UNL1        0.0000
      3 H           2.3332   11.5589    9.9784 H       1  UNL1        0.0000
      4 C           4.1352   13.4572   12.2849 C.3     1  UNL1        0.0000
      5 H           5.1742   13.2570   12.0402 H       1  UNL1        0.0000
      6 H           4.1128   13.9704   13.2420 H       1  UNL1        0.0000
      7 H           3.7482   14.1438   11.5376 H       1  UNL1        0.0000
      8 C           3.9255   10.6784   13.6218 C.3     1  UNL1        0.0000
      9 H           3.1932   10.1876   14.2552 H       1  UNL1        0.0000
     10 H           4.6166   11.2116   14.2671 H       1  UNL1        0.0000
     11 H           4.4851    9.9044   13.1005 H       1  UNL1        0.0000
     12 C           1.3834   12.3452   13.0187 C.3     1  UNL1        0.0000
     13 H           0.9135   13.0794   12.3716 H       1  UNL1        0.0000
     14 H           1.4633   12.7856   14.0081 H       1  UNL1        0.0000
     15 H           0.7113   11.4949   13.0888 H       1  UNL1        0.0000
@<TRIPOS>BOND
     1     3     2    1
     2     2     1    1
     3     7     4    1
     4     5     4    1
     5     4     1    1
     6     4     6    1
     7     1    12    1
     8     1     8    1
     9    13    12    1
    10    12    15    1
    11    12    14    1
    12    11     8    1
    13     8     9    1
    14     8    10    1
