@<TRIPOS>MOLECULE
1
 4 3 0 0 0
SMALL
GASTEIGER

@<TRIPOS>ATOM
      1 C           0.2911    0.0064    3.6612 C.3     1  UNL1       -0.0681
      2 H          -0.1301    0.1537    2.6501 H       1  UNL1        0.0227
      3 H          -0.5008    0.2715    4.3763 H       1  UNL1        0.0227
      4 H           0.4802   -1.0687    3.7925 H       1  UNL1        0.0227
@<TRIPOS>BOND
     1     2     1    1
     2     1     4    1
     3     1     3    1
