@<TRIPOS>MOLECULE
1
 4 3 0 0 0
SMALL
GASTEIGER

@<TRIPOS>ATOM
      1 C           2.0576    1.3756    6.1199 C.3     1  UNL1       -0.0681
      2 H           2.9882    1.7260    6.5932 H       1  UNL1        0.0227
      3 H           1.8820    0.3559    6.5026 H       1  UNL1        0.0227
      4 H           1.2504    1.9929    6.5360 H       1  UNL1        0.0227
@<TRIPOS>BOND
     1     1     3    1
     2     1     4    1
     3     1     2    1
