@<TRIPOS>MOLECULE
1
 14 14 0 0 0
SMALL
GASTEIGER

@<TRIPOS>ATOM
      1 C           3.6198    9.0135    0.1718 C.3     1  UNL1       -0.0237
      2 H           4.3930    9.4691   -0.4622 H       1  UNL1        0.0316
      3 H           2.7027    8.8866   -0.4227 H       1  UNL1        0.0316
      4 C           3.3812    9.8296    1.3637 C.ar    1  UNL1       -0.0470
      5 C           4.4597   10.2552    2.1674 C.ar    1  UNL1       -0.0586
      6 H           5.4752    9.9871    1.8815 H       1  UNL1        0.0620
      7 C           4.2551   11.0396    3.2860 C.ar    1  UNL1       -0.0615
      8 H           5.1029   11.3625    3.8758 H       1  UNL1        0.0618
      9 C           2.9736   11.4247    3.6544 C.ar    1  UNL1       -0.0617
     10 H           2.8181   12.0376    4.5291 H       1  UNL1        0.0618
     11 C           1.8994   11.0259    2.8747 C.ar    1  UNL1       -0.0615
     12 H           0.8990   11.3371    3.1413 H       1  UNL1        0.0618
     13 C           2.0981   10.2509    1.7492 C.ar    1  UNL1       -0.0586
     14 H           1.2515    9.9778    1.1327 H       1  UNL1        0.0620
@<TRIPOS>BOND
     1     2     1    1
     2     3     1    1
     3     1     4    1
     4    14    13    1
     5     4    13   ar
     6     4     5   ar
     7    13    11   ar
     8     6     5    1
     9     5     7   ar
    10    11    12    1
    11    11     9   ar
    12     7     9   ar
    13     7     8    1
    14     9    10    1
