@<TRIPOS>MOLECULE
1
 14 14 0 0 0
SMALL
GASTEIGER

@<TRIPOS>ATOM
      1 C           5.3249    6.1502   -0.9663 C.3     1  UNL1       -0.0237
      2 H           6.4072    6.3249   -0.9788 H       1  UNL1        0.0316
      3 H           5.0983    5.0787   -1.0184 H       1  UNL1        0.0316
      4 C           4.6392    6.9079   -2.0146 C.ar    1  UNL1       -0.0470
      5 C           5.1900    8.0974   -2.5251 C.ar    1  UNL1       -0.0586
      6 H           6.1474    8.4317   -2.1462 H       1  UNL1        0.0620
      7 C           4.5393    8.8324   -3.4945 C.ar    1  UNL1       -0.0615
      8 H           4.9947    9.7375   -3.8708 H       1  UNL1        0.0618
      9 C           3.3138    8.4158   -3.9928 C.ar    1  UNL1       -0.0617
     10 H           2.8060    8.9926   -4.7512 H       1  UNL1        0.0618
     11 C           2.7571    7.2404   -3.5150 C.ar    1  UNL1       -0.0615
     12 H           1.8103    6.8959   -3.9081 H       1  UNL1        0.0618
     13 C           3.4081    6.4951   -2.5511 C.ar    1  UNL1       -0.0586
     14 H           2.9731    5.5620   -2.2207 H       1  UNL1        0.0620
@<TRIPOS>BOND
     1    10     9    1
     2     9    11   ar
     3     9     7   ar
     4    12    11    1
     5     8     7    1
     6    11    13   ar
     7     7     5   ar
     8    13    14    1
     9    13     4   ar
    10     5     6    1
    11     5     4   ar
    12     4     1    1
    13     3     1    1
    14     2     1    1
