@<TRIPOS>MOLECULE
2
 15 14 0 0 0
SMALL
GASTEIGER

@<TRIPOS>ATOM
      1 SI          5.5948    4.4071   14.9040 Si      1  UNL1        0.0000
      2 C           3.9254    3.6250   14.6027 C.3     1  UNL1        0.0000
      3 C           5.4675    6.2629   14.4236 C.3     1  UNL1        0.0000
      4 C           6.9855    3.5993   13.8531 C.3     1  UNL1        0.0000
      5 C           6.1770    4.3061   16.7301 C.3     1  UNL1        0.0000
      6 H           3.4342    3.2884   15.5248 H       1  UNL1        0.0000
      7 H           5.0490    6.8606   15.2275 H       1  UNL1        0.0000
      8 H           4.8069    6.3467   13.5610 H       1  UNL1        0.0000
      9 H           6.4331    6.6860   14.1655 H       1  UNL1        0.0000
     10 H           7.1113    2.5463   14.0883 H       1  UNL1        0.0000
     11 H           7.9402    4.0881   14.0206 H       1  UNL1        0.0000
     12 H           6.7506    3.6892   12.7973 H       1  UNL1        0.0000
     13 H           6.3267    3.2780   17.0441 H       1  UNL1        0.0000
     14 H           5.4476    4.7497   17.3999 H       1  UNL1        0.0000
     15 H           7.1151    4.8314   16.8756 H       1  UNL1        0.0000
@<TRIPOS>BOND
     1    12     4    1
     2     8     3    1
     3     4    11    1
     4     4    10    1
     5     4     1    1
     6     9     3    1
     7     3     1    1
     8     3     7    1
     9     2     1    1
    10     2     6    1
    11     1     5    1
    12     5    15    1
    13     5    13    1
    14     5    14    1
