@<TRIPOS>MOLECULE
2
 16 15 0 0 0
SMALL
GASTEIGER

@<TRIPOS>ATOM
      1 SI          1.2767    5.5099   11.0511 Si      1  UNL1        0.0000
      2 C           1.7601    5.4341   12.8869 C.3     1  UNL1        0.0000
      3 C           1.6791    3.8791   10.0766 C.3     1  UNL1        0.0000
      4 C          -0.5983    5.8042   10.7643 C.3     1  UNL1        0.0000
      5 C           2.2322    6.9003   10.1444 C.3     1  UNL1        0.0000
      6 H           2.1959    6.3882   13.2024 H       1  UNL1        0.0000
      7 H           0.8715    5.2655   13.5117 H       1  UNL1        0.0000
      8 H           2.2226    3.1577   10.7128 H       1  UNL1        0.0000
      9 H           2.3140    4.0881    9.2188 H       1  UNL1        0.0000
     10 H           0.7803    3.3889    9.7104 H       1  UNL1        0.0000
     11 H          -1.2005    5.0307   11.2309 H       1  UNL1        0.0000
     12 H          -0.8369    5.8123    9.7056 H       1  UNL1        0.0000
     13 H          -0.9091    6.7577   11.1775 H       1  UNL1        0.0000
     14 H           3.3051    6.7462   10.2107 H       1  UNL1        0.0000
     15 H           2.0087    7.8727   10.5696 H       1  UNL1        0.0000
     16 H           1.9672    6.9345    9.0924 H       1  UNL1        0.0000
@<TRIPOS>BOND
     1    16     5    1
     2     9     3    1
     3    12     4    1
     4    10     3    1
     5     3     8    1
     6     3     1    1
     7     5    14    1
     8     5    15    1
     9     5     1    1
    10     4     1    1
    11     4    13    1
    12     4    11    1
    13     1     2    1
    14     2     6    1
    15     2     7    1
