@<TRIPOS>MOLECULE
2
 21 21 0 0 0
SMALL
GASTEIGER

@<TRIPOS>ATOM
      1 N           6.5332   -1.1937    6.2390 N.pl3   1  UNL1       -0.3080
      2 C           6.2656   -0.3746    5.2043 C.3     1  UNL1        0.1864
      3 C           6.3031   -2.5126    5.9069 C.2     1  UNL1        0.0217
      4 C           7.0338   -0.7755    7.5155 C.3     1  UNL1        0.0026
      5 H           6.5015   -1.2851    8.3171 H       1  UNL1        0.0428
      6 H           6.8651    0.2968    7.5819 H       1  UNL1        0.0428
      7 H           8.0993   -0.9968    7.5993 H       1  UNL1        0.0428
      8 C           6.5188   -3.6260    6.8673 C.3     1  UNL1       -0.0251
      9 H           5.8354   -3.5465    7.7130 H       1  UNL1        0.0290
     10 H           7.5373   -3.6081    7.2533 H       1  UNL1        0.0290
     11 H           6.3503   -4.5812    6.3784 H       1  UNL1        0.0290
     12 N           5.8720   -1.2025    4.2053 N.pl3   1  UNL1       -0.3080
     13 C           5.8776   -2.5185    4.6155 C.2     1  UNL1        0.0217
     14 C           5.5159   -0.7808    2.8806 C.3     1  UNL1        0.0026
     15 H           6.0467   -1.3808    2.1409 H       1  UNL1        0.0428
     16 H           5.8003    0.2669    2.7683 H       1  UNL1        0.0428
     17 H           4.4429   -0.8890    2.7147 H       1  UNL1        0.0428
     18 C           5.4755   -3.6351    3.7208 C.3     1  UNL1       -0.0251
     19 H           6.1621   -3.7259    2.8786 H       1  UNL1        0.0290
     20 H           4.4748   -3.4677    3.3240 H       1  UNL1        0.0290
     21 H           5.4779   -4.5732    4.2679 H       1  UNL1        0.0290
@<TRIPOS>BOND
     1    15    14    1
     2    17    14    1
     3    16    14    1
     4    19    18    1
     5    14    12    1
     6    20    18    1
     7    18    21    1
     8    18    13    1
     9    12    13    1
    10    12     2    1
    11    13     3    2
    12     2     1    1
    13     3     1    1
    14     3     8    1
    15     1     4    1
    16    11     8    1
    17     8    10    1
    18     8     9    1
    19     4     6    1
    20     4     7    1
    21     4     5    1
