@<TRIPOS>MOLECULE
1
 26 25 0 0 0
SMALL
GASTEIGER

@<TRIPOS>ATOM
      1 C           3.1245    7.0580    4.4438 C.3     1  UNL1        0.0000
      2 SI          1.8601    7.5228    5.7246 Si      1  UNL1        0.0000
      3 C           2.1694    6.7171    7.4338 C.3     1  UNL1        0.0000
      4 C           1.5909    9.3942    6.0303 C.3     1  UNL1        0.0000
      5 O           0.4205    6.9024    5.0845 O.3     1  UNL1        0.0000
      6 SI         -1.1442    7.1420    5.5037 Si      1  UNL1        0.0000
      7 C          -1.8088    8.7254    4.6673 C.3     1  UNL1        0.0000
      8 C          -2.1847    5.6272    4.9884 C.3     1  UNL1        0.0000
      9 C          -1.3977    7.3192    7.3871 C.3     1  UNL1        0.0000
     10 H           3.9940    6.6022    4.9370 H       1  UNL1        0.0000
     11 H           3.4981    7.9572    3.9336 H       1  UNL1        0.0000
     12 H           2.5153    5.6934    7.3296 H       1  UNL1        0.0000
     13 H           2.9385    7.2634    7.9699 H       1  UNL1        0.0000
     14 H           1.2820    6.7045    8.0559 H       1  UNL1        0.0000
     15 H           2.4954    9.8510    6.4179 H       1  UNL1        0.0000
     16 H           1.3360    9.9107    5.1102 H       1  UNL1        0.0000
     17 H           0.7953    9.5848    6.7430 H       1  UNL1        0.0000
     18 H          -1.3859    9.6167    5.1203 H       1  UNL1        0.0000
     19 H          -1.5809    8.7628    3.6067 H       1  UNL1        0.0000
     20 H          -2.8874    8.7904    4.7721 H       1  UNL1        0.0000
     21 H          -3.1980    5.7546    5.3565 H       1  UNL1        0.0000
     22 H          -2.2538    5.4933    3.9138 H       1  UNL1        0.0000
     23 H          -1.7991    4.7076    5.4170 H       1  UNL1        0.0000
     24 H          -1.1403    6.4056    7.9153 H       1  UNL1        0.0000
     25 H          -0.8012    8.1220    7.8079 H       1  UNL1        0.0000
     26 H          -2.4378    7.5358    7.6108 H       1  UNL1        0.0000
@<TRIPOS>BOND
     1    19     7    1
     2    22     8    1
     3    11     1    1
     4     1    10    1
     5     1     2    1
     6     7    20    1
     7     7    18    1
     8     7     6    1
     9     8    21    1
    10     8    23    1
    11     8     6    1
    12     5     6    1
    13     5     2    1
    14    16     4    1
    15     6     9    1
    16     2     4    1
    17     2     3    1
    18     4    15    1
    19     4    17    1
    20    12     3    1
    21     9    26    1
    22     9    25    1
    23     9    24    1
    24     3    13    1
    25     3    14    1
