@<TRIPOS>MOLECULE
2
 25 25 0 0 0
SMALL
GASTEIGER

@<TRIPOS>ATOM
      1 C           4.0952    1.5393   16.7199 C.2     1  UNL1       -0.0584
      2 C           3.7693    2.8926   17.0076 C.3     1  UNL1        0.0231
      3 C           4.8775    3.7021   16.6166 C.2     1  UNL1       -0.0584
      4 C           5.8773    2.8453   16.0836 C.2     1  UNL1       -0.0477
      5 C           5.3863    1.5117   16.1247 C.2     1  UNL1       -0.0477
      6 C           3.2977    0.3207   17.0890 C.3     1  UNL1       -0.0424
      7 C           2.5269    3.3475   17.7281 C.3     1  UNL1       -0.0510
      8 C           5.0463    5.1814   16.8501 C.3     1  UNL1       -0.0424
      9 C           7.2656    3.2354   15.6635 C.3     1  UNL1       -0.0395
     10 C           6.1923    0.2735   15.8380 C.3     1  UNL1       -0.0395
     11 H           2.2880    0.5926   17.3860 H       1  UNL1        0.0275
     12 H           3.2266   -0.3724   16.2478 H       1  UNL1        0.0275
     13 H           3.7726   -0.2033   17.9217 H       1  UNL1        0.0275
     14 H           2.4061    4.4298   17.6739 H       1  UNL1        0.0242
     15 H           1.6372    2.8765   17.3046 H       1  UNL1        0.0242
     16 H           2.5794    3.0714   18.7839 H       1  UNL1        0.0242
     17 H           5.7801    5.3553   17.6404 H       1  UNL1        0.0275
     18 H           5.4040    5.6841   15.9482 H       1  UNL1        0.0275
     19 H           4.1106    5.6474   17.1596 H       1  UNL1        0.0275
     20 H           7.9932    2.9087   16.4101 H       1  UNL1        0.0278
     21 H           7.5301    2.7765   14.7084 H       1  UNL1        0.0278
     22 H           7.3483    4.3137   15.5525 H       1  UNL1        0.0278
     23 H           5.5489   -0.5578   15.5497 H       1  UNL1        0.0278
     24 H           6.9181    0.4501   15.0442 H       1  UNL1        0.0278
     25 H           6.7443   -0.0273   16.7324 H       1  UNL1        0.0278
@<TRIPOS>BOND
     1    21     9    1
     2    24    10    1
     3    23    10    1
     4    22     9    1
     5     9     4    1
     6     9    20    1
     7    10     5    1
     8    10    25    1
     9    18     8    1
    10     4     5    1
    11     4     3    2
    12     5     1    2
    13    12     6    1
    14     3     8    1
    15     3     2    1
    16     1     2    1
    17     1     6    1
    18     8    19    1
    19     8    17    1
    20     2     7    1
    21     6    11    1
    22     6    13    1
    23    15     7    1
    24    14     7    1
    25     7    16    1
