@<TRIPOS>MOLECULE
1
 26 25 0 0 0
SMALL
GASTEIGER

@<TRIPOS>ATOM
      1 C           4.4361    5.6334    2.2531 C.3     1  UNL1        0.0000
      2 SI          4.6754    4.7071    0.6594 Si      1  UNL1        0.0000
      3 C           5.9712    3.2966    0.6689 C.3     1  UNL1        0.0000
      4 C           5.0909    5.8375   -0.8289 C.3     1  UNL1        0.0000
      5 O           3.1591    4.0000    0.3972 O.3     1  UNL1        0.0000
      6 SI          2.6717    2.8393   -0.6501 Si      1  UNL1        0.0000
      7 C           3.0118    1.1103    0.0871 C.3     1  UNL1        0.0000
      8 C           0.8122    3.0529   -1.0231 C.3     1  UNL1        0.0000
      9 C           3.5473    2.9408   -2.3429 C.3     1  UNL1        0.0000
     10 H           4.8254    6.6549    2.1446 H       1  UNL1        0.0000
     11 H           5.0221    5.1659    3.0571 H       1  UNL1        0.0000
     12 H           5.7576    2.5713    1.4475 H       1  UNL1        0.0000
     13 H           6.0056    2.7625   -0.2747 H       1  UNL1        0.0000
     14 H           6.9634    3.6921    0.8587 H       1  UNL1        0.0000
     15 H           6.1390    6.1173   -0.8036 H       1  UNL1        0.0000
     16 H           4.9023    5.3582   -1.7827 H       1  UNL1        0.0000
     17 H           4.5120    6.7556   -0.7995 H       1  UNL1        0.0000
     18 H           2.6553    1.0154    1.1079 H       1  UNL1        0.0000
     19 H           2.5240    0.3399   -0.5021 H       1  UNL1        0.0000
     20 H           4.0744    0.8877    0.0938 H       1  UNL1        0.0000
     21 H           0.5871    4.0457   -1.3997 H       1  UNL1        0.0000
     22 H           0.5236    2.3431   -1.7922 H       1  UNL1        0.0000
     23 H           0.1734    2.8665   -0.1661 H       1  UNL1        0.0000
     24 H           4.6274    2.8963   -2.2497 H       1  UNL1        0.0000
     25 H           3.2419    2.1149   -2.9778 H       1  UNL1        0.0000
     26 H           3.2995    3.8580   -2.8695 H       1  UNL1        0.0000
@<TRIPOS>BOND
     1    25     9    1
     2    26     9    1
     3     9    24    1
     4     9     6    1
     5    22     8    1
     6    16     4    1
     7    21     8    1
     8     8     6    1
     9     8    23    1
    10     4    15    1
    11     4    17    1
    12     4     2    1
    13     6     7    1
    14     6     5    1
    15    19     7    1
    16    13     3    1
    17     7    20    1
    18     7    18    1
    19     5     2    1
    20     2     3    1
    21     2     1    1
    22     3    14    1
    23     3    12    1
    24    10     1    1
    25     1    11    1
