@<TRIPOS>MOLECULE
3
 25 24 0 0 0
SMALL
GASTEIGER

@<TRIPOS>ATOM
      1 SI          1.8993    2.6008    1.1223 Si      1  UNL1        0.0000
      2 N          -1.9074    2.6009   -2.5488 N.3     1  UNL1        0.0000
      3 C          -1.8890    2.6010   -1.2394 C.3     1  UNL1        0.0000
      4 C          -0.6286    2.6007   -0.6172 C.1     1  UNL1        0.0000
      5 C           0.4313    2.6004   -0.0193 C.1     1  UNL1        0.0000
      6 C          -3.1302    2.6016   -3.3129 C.3     1  UNL1        0.0000
      7 C          -0.7225    2.6001   -3.3842 C.3     1  UNL1        0.0000
      8 C           1.7965    1.0244    2.1839 C.3     1  UNL1        0.0000
      9 C           3.4743    2.6013    0.0466 C.3     1  UNL1        0.0000
     10 H          -3.9920    2.6024   -2.6479 H       1  UNL1        0.0000
     11 H          -3.1710    1.7157   -3.9512 H       1  UNL1        0.0000
     12 H           0.1707    2.5988   -2.7627 H       1  UNL1        0.0000
     13 H          -0.7182    1.7147   -4.0234 H       1  UNL1        0.0000
     14 H           2.6028    0.9832    2.9108 H       1  UNL1        0.0000
     15 H           0.8579    0.9816    2.7279 H       1  UNL1        0.0000
     16 H           1.8591    0.1302    1.5707 H       1  UNL1        0.0000
     17 H           4.3683    2.6018    0.6633 H       1  UNL1        0.0000
     18 H           3.5197    1.7245   -0.5930 H       1  UNL1        0.0000
     19 C           1.7954    4.1774    2.1838 C.3     1  UNL1        0.0000
     20 H          -3.1696    3.4874   -3.9515 H       1  UNL1        0.0000
     21 H          -0.7163    3.4861   -4.0225 H       1  UNL1        0.0000
     22 H           3.5189    3.4778   -0.5934 H       1  UNL1        0.0000
     23 H           2.6019    4.2195    2.9103 H       1  UNL1        0.0000
     24 H           0.8570    4.2193    2.7281 H       1  UNL1        0.0000
     25 H           1.8569    5.0715    1.5704 H       1  UNL1        0.0000
@<TRIPOS>BOND
     1    13     7    1
     2    21     7    1
     3    20     6    1
     4    11     6    1
     5     7    12    1
     6     7     2    1
     7     6    10    1
     8     6     2    1
     9     2     3    1
    10     3     4    1
    11     4     5    3
    12    22     9    1
    13    18     9    1
    14     5     1    1
    15     9    17    1
    16     9     1    1
    17     1    19    1
    18     1     8    1
    19    25    19    1
    20    16     8    1
    21    19    24    1
    22    19    23    1
    23     8    15    1
    24     8    14    1
