@<TRIPOS>MOLECULE
1
 13 13 0 0 0
SMALL
GASTEIGER

@<TRIPOS>ATOM
      1 C           9.9995    1.4350    1.5097 C.3     1  UNL1       -0.0011
      2 C           9.4566    1.7675    0.2494 C.ar    1  UNL1       -0.0431
      3 C          10.0551    1.3506   -0.9719 C.ar    1  UNL1       -0.0583
      4 C           9.5208    1.6831   -2.1922 C.ar    1  UNL1       -0.0615
      5 C           8.3622    2.4468   -2.2814 C.ar    1  UNL1       -0.0617
      6 C           7.7479    2.8700   -1.1090 C.ar    1  UNL1       -0.0615
      7 C           8.2734    2.5434    0.1182 C.ar    1  UNL1       -0.0583
      8 H          10.9169    0.8201    1.3834 H       1  UNL1        0.0361
      9 H          10.9589    0.7549   -0.9252 H       1  UNL1        0.0620
     10 H          10.0081    1.3465   -3.0984 H       1  UNL1        0.0618
     11 H           7.9467    2.7056   -3.2438 H       1  UNL1        0.0618
     12 H           6.8441    3.4642   -1.1633 H       1  UNL1        0.0618
     13 H           7.7859    2.8765    1.0285 H       1  UNL1        0.0620
@<TRIPOS>BOND
     1    11     5    1
     2    10     4    1
     3     5     4   ar
     4     5     6   ar
     5     4     3   ar
     6    12     6    1
     7     6     7   ar
     8     3     9    1
     9     3     2   ar
    10     7     2   ar
    11     7    13    1
    12     2     1    1
    13     8     1    1
