@<TRIPOS>MOLECULE
5
 10 10 0 0 0
SMALL
GASTEIGER

@<TRIPOS>ATOM
      1 C          10.2628    1.0595    2.2719 C.2     1  UNL1       -0.0763
      2 C          11.4577    0.8796    2.8874 C.2     1  UNL1       -0.0654
      3 C          11.4226    1.5285    4.1638 C.2     1  UNL1       -0.0654
      4 C          10.2054    2.1028    4.3293 C.2     1  UNL1       -0.0763
      5 C           9.3629    1.8006    3.1647 C.3     1  UNL1        0.0054
      6 H           9.9936    0.7380    1.2796 H       1  UNL1        0.0578
      7 H          12.3078    0.3486    2.4971 H       1  UNL1        0.0615
      8 H          12.2429    1.5500    4.8592 H       1  UNL1        0.0615
      9 H           9.8826    2.7056    5.1619 H       1  UNL1        0.0578
     10 H           8.8230    2.6355    2.7285 H       1  UNL1        0.0394
@<TRIPOS>BOND
     1     6     1    1
     2     1     2    2
     3     1     5    1
     4     7     2    1
     5    10     5    1
     6     2     3    1
     7     5     4    1
     8     3     4    2
     9     3     8    1
    10     4     9    1
