@<TRIPOS>MOLECULE
4
 39 40 0 0 0
SMALL
GASTEIGER

@<TRIPOS>ATOM
      1 S           3.4596    1.9065    1.1198 S.3     1  UNL1        0.0000
      2 P           1.9742    3.2062    0.8829 P.3     1  UNL1        0.0000
      3 SI          0.6974    1.6359   -1.4246 Si      1  UNL1        0.0000
      4 C           0.5875    2.2169    0.3871 C.3     1  UNL1        0.0000
      5 H          -0.3578    2.7016    0.6451 H       1  UNL1        0.0000
      6 C           2.4771    4.5853   -0.2028 C.ar    1  UNL1        0.0000
      7 C           3.7929    4.7151   -0.6202 C.ar    1  UNL1        0.0000
      8 H           4.5277    3.9998   -0.2749 H       1  UNL1        0.0000
      9 C           4.1448    5.7501   -1.4688 C.ar    1  UNL1        0.0000
     10 H           5.1692    5.8549   -1.7950 H       1  UNL1        0.0000
     11 C           3.1830    6.6477   -1.9019 C.ar    1  UNL1        0.0000
     12 H           3.4581    7.4529   -2.5672 H       1  UNL1        0.0000
     13 C           1.8658    6.5156   -1.4878 C.ar    1  UNL1        0.0000
     14 H           1.1184    7.2172   -1.8294 H       1  UNL1        0.0000
     15 C           1.5102    5.4833   -0.6413 C.ar    1  UNL1        0.0000
     16 H           0.4868    5.3631   -0.3090 H       1  UNL1        0.0000
     17 C           1.6016    4.0664    2.4571 C.ar    1  UNL1        0.0000
     18 C           1.7720    5.4350    2.6291 C.ar    1  UNL1        0.0000
     19 H           2.1044    6.0528    1.8072 H       1  UNL1        0.0000
     20 C           1.5161    6.0114    3.8612 C.ar    1  UNL1        0.0000
     21 H           1.6477    7.0762    3.9884 H       1  UNL1        0.0000
     22 C           1.0996    5.2324    4.9275 C.ar    1  UNL1        0.0000
     23 H           0.9027    5.6893    5.8861 H       1  UNL1        0.0000
     24 C           0.9486    3.8643    4.7645 C.ar    1  UNL1        0.0000
     25 H           0.6379    3.2506    5.5978 H       1  UNL1        0.0000
     26 C           1.2053    3.2862    3.5371 C.ar    1  UNL1        0.0000
     27 H           1.1145    2.2077    3.3953 H       1  UNL1        0.0000
     28 C           1.3162    2.9102   -2.7108 C.3     1  UNL1        0.0000
     29 H           1.2366    2.4897   -3.7086 H       1  UNL1        0.0000
     30 H           2.3558    3.1775   -2.5490 H       1  UNL1        0.0000
     31 H           0.7345    3.8267   -2.6951 H       1  UNL1        0.0000
     32 C           1.8624    0.1238   -1.5653 C.3     1  UNL1        0.0000
     33 H           2.9021    0.4364   -1.5108 H       1  UNL1        0.0000
     34 H           1.7208   -0.3950   -2.5090 H       1  UNL1        0.0000
     35 H           1.6923   -0.5907   -0.7591 H       1  UNL1        0.0000
     36 C          -1.0730    1.1773   -1.9831 C.3     1  UNL1        0.0000
     37 H          -1.5410    0.4339   -1.3483 H       1  UNL1        0.0000
     38 H          -1.0432    0.7766   -2.9895 H       1  UNL1        0.0000
     39 H          -1.7190    2.0487   -1.9981 H       1  UNL1        0.0000
@<TRIPOS>BOND
     1    29    28    1
     2    38    36    1
     3    28    31    1
     4    28    30    1
     5    28     3    1
     6    12    11    1
     7    34    32    1
     8    39    36    1
     9    36     3    1
    10    36    37    1
    11    11    13   ar
    12    11     9   ar
    13    14    13    1
    14    10     9    1
    15    32    33    1
    16    32     3    1
    17    32    35    1
    18    13    15   ar
    19     9     7   ar
    20     3     4    1
    21    15    16    1
    22    15     6   ar
    23     7     8    1
    24     7     6   ar
    25     6     2    1
    26     4     5    1
    27     4     2    1
    28     2     1    1
    29     2    17    1
    30    19    18    1
    31    17    18   ar
    32    17    26   ar
    33    18    20   ar
    34    27    26    1
    35    26    24   ar
    36    20    21    1
    37    20    22   ar
    38    24    22   ar
    39    24    25    1
    40    22    23    1
