@<TRIPOS>MOLECULE
1
 4 3 0 0 0
SMALL
GASTEIGER

@<TRIPOS>ATOM
      1 C           7.1055    5.3750   16.1076 C.3     1  UNL1       -0.0681
      2 H           6.1816    4.8146   16.3144 H       1  UNL1        0.0227
      3 H           6.8499    6.1295   15.3578 H       1  UNL1        0.0227
      4 H           7.3597    5.9223   17.0221 H       1  UNL1        0.0227
@<TRIPOS>BOND
     1     3     1    1
     2     1     2    1
     3     1     4    1
