@<TRIPOS>MOLECULE
1
 4 3 0 0 0
SMALL
GASTEIGER

@<TRIPOS>ATOM
      1 C           9.9467    5.3750   14.8737 C.3     1  UNL1       -0.0681
      2 H          10.8706    4.8145   14.6669 H       1  UNL1        0.0227
      3 H          10.2024    6.1295   15.6236 H       1  UNL1        0.0227
      4 H           9.6926    5.9223   13.9592 H       1  UNL1        0.0227
@<TRIPOS>BOND
     1     4     1    1
     2     2     1    1
     3     1     3    1
