@<TRIPOS>MOLECULE
1
 4 3 0 0 0
SMALL
GASTEIGER

@<TRIPOS>ATOM
      1 C          10.0060    8.1665    4.8350 C.3     1  UNL1       -0.0681
      2 H          10.2750    8.7100    5.7529 H       1  UNL1        0.0227
      3 H          10.7888    7.4197    4.6710 H       1  UNL1        0.0227
      4 H           9.0845    7.6108    5.0447 H       1  UNL1        0.0227
@<TRIPOS>BOND
     1     3     1    1
     2     1     4    1
     3     1     2    1
