@<TRIPOS>MOLECULE
1
 4 3 0 0 0
SMALL
GASTEIGER

@<TRIPOS>ATOM
      1 C           9.6962    8.1666    1.7869 C.3     1  UNL1       -0.0681
      2 H           9.4272    8.7101    0.8691 H       1  UNL1        0.0227
      3 H           8.9134    7.4197    1.9509 H       1  UNL1        0.0227
      4 H          10.6177    7.6109    1.5773 H       1  UNL1        0.0227
@<TRIPOS>BOND
     1     2     1    1
     2     4     1    1
     3     1     3    1
