@<TRIPOS>MOLECULE
2
 15 14 0 0 0
SMALL
GASTEIGER

@<TRIPOS>ATOM
      1 SI         15.1768    7.0865    2.6943 Si      1  UNL1        0.0000
      2 C          13.2823    9.4721    2.9770 C.1     1  UNL1        0.0000
      3 C          14.0364    8.5283    2.8271 C.1     1  UNL1        0.0000
      4 C          14.2352    5.5425    2.0766 C.3     1  UNL1        0.0000
      5 H          13.8662    5.6916    1.0663 H       1  UNL1        0.0000
      6 H          13.3781    5.3284    2.7093 H       1  UNL1        0.0000
      7 H          14.8692    4.6600    2.0682 H       1  UNL1        0.0000
      8 C          16.6280    7.4550    1.5120 C.3     1  UNL1        0.0000
      9 H          17.1894    8.3226    1.8453 H       1  UNL1        0.0000
     10 H          16.2673    7.6670    0.5100 H       1  UNL1        0.0000
     11 H          17.3187    6.6185    1.4451 H       1  UNL1        0.0000
     12 C          15.8731    6.7022    4.4362 C.3     1  UNL1        0.0000
     13 H          16.3618    7.5736    4.8628 H       1  UNL1        0.0000
     14 H          16.6021    5.8969    4.4100 H       1  UNL1        0.0000
     15 H          15.0799    6.4041    5.1163 H       1  UNL1        0.0000
@<TRIPOS>BOND
     1    10     8    1
     2     5     4    1
     3    11     8    1
     4     8     9    1
     5     8     1    1
     6     7     4    1
     7     4     1    1
     8     4     6    1
     9     1     3    1
    10     1    12    1
    11     3     2    3
    12    14    12    1
    13    12    13    1
    14    12    15    1
