@<TRIPOS>MOLECULE
1
 13 13 0 0 0
SMALL
GASTEIGER

@<TRIPOS>ATOM
      1 C           5.6460    6.1051    6.9443 C.1     1  UNL1       -0.0092
      2 C           6.2183    6.8441    6.1657 C.1     1  UNL1       -0.0525
      3 C           6.8766    7.7146    5.2559 C.ar    1  UNL1        0.0259
      4 C           6.1693    8.2756    4.1912 C.ar    1  UNL1       -0.0463
      5 C           8.2295    8.0172    5.4141 C.ar    1  UNL1       -0.0463
      6 C           6.8074    9.1243    3.3077 C.ar    1  UNL1       -0.0606
      7 H           5.1224    8.0387    4.0694 H       1  UNL1        0.0630
      8 C           8.8589    8.8665    4.5246 C.ar    1  UNL1       -0.0606
      9 H           8.7775    7.5818    6.2378 H       1  UNL1        0.0630
     10 C           8.1511    9.4226    3.4710 C.ar    1  UNL1       -0.0617
     11 H           6.2552    9.5570    2.4857 H       1  UNL1        0.0618
     12 H           9.9068    9.0974    4.6524 H       1  UNL1        0.0618
     13 H           8.6461   10.0871    2.7782 H       1  UNL1        0.0618
@<TRIPOS>BOND
     1    11     6    1
     2    13    10    1
     3     6    10   ar
     4     6     4   ar
     5    10     8   ar
     6     7     4    1
     7     4     3   ar
     8     8    12    1
     9     8     5   ar
    10     3     5   ar
    11     3     2    1
    12     5     9    1
    13     2     1    3
