@<TRIPOS>MOLECULE
1
 13 13 0 0 0
SMALL
GASTEIGER

@<TRIPOS>ATOM
      1 C           3.4506    3.3837    6.9425 C.1     1  UNL1       -0.0092
      2 C           2.8751    2.6467    6.1644 C.1     1  UNL1       -0.0525
      3 C           2.9141    1.2201    4.1863 C.ar    1  UNL1       -0.0463
      4 C           2.2715    0.3747    3.3031 C.ar    1  UNL1       -0.0606
      5 C           0.9283    0.0771    3.4714 C.ar    1  UNL1       -0.0617
      6 C           0.2256    0.6308    4.5297 C.ar    1  UNL1       -0.0606
      7 C           0.8595    1.4770    5.4188 C.ar    1  UNL1       -0.0463
      8 C           2.2119    1.7789    5.2556 C.ar    1  UNL1        0.0259
      9 H           3.9607    1.4564    4.0609 H       1  UNL1        0.0630
     10 H           2.8197   -0.0561    2.4775 H       1  UNL1        0.0618
     11 H           0.4295   -0.5850    2.7788 H       1  UNL1        0.0618
     12 H          -0.8220    0.4004    4.6612 H       1  UNL1        0.0618
     13 H           0.3153    1.9107    6.2460 H       1  UNL1        0.0630
@<TRIPOS>BOND
     1    10     4    1
     2    11     5    1
     3     4     5   ar
     4     4     3   ar
     5     5     6   ar
     6     9     3    1
     7     3     8   ar
     8     6    12    1
     9     6     7   ar
    10     8     7   ar
    11     8     2    1
    12     7    13    1
    13     2     1    3
