@<TRIPOS>MOLECULE
2
 16 15 0 0 0
SMALL
GASTEIGER

@<TRIPOS>ATOM
      1 SI          3.2151   10.0399   -3.4647 Si      1  UNL1        0.0000
      2 C           3.4059   11.7066   -2.6167 C.3     1  UNL1        0.0000
      3 H           3.6527   11.5075   -1.5646 H       1  UNL1        0.0000
      4 H           2.4119   12.1729   -2.5905 H       1  UNL1        0.0000
      5 C           2.4533    8.6890   -2.3224 C.3     1  UNL1        0.0000
      6 H           1.4596    8.9700   -1.9866 H       1  UNL1        0.0000
      7 H           3.0629    8.5374   -1.4360 H       1  UNL1        0.0000
      8 H           2.3682    7.7305   -2.8255 H       1  UNL1        0.0000
      9 C           4.8902    9.3085   -4.0421 C.3     1  UNL1        0.0000
     10 H           5.4922   10.0555   -4.5492 H       1  UNL1        0.0000
     11 H           4.7423    8.4793   -4.7276 H       1  UNL1        0.0000
     12 H           5.4629    8.9291   -3.2003 H       1  UNL1        0.0000
     13 C           2.0250   10.1448   -4.9646 C.3     1  UNL1        0.0000
     14 H           2.3511   10.8863   -5.6851 H       1  UNL1        0.0000
     15 H           1.0200   10.4079   -4.6468 H       1  UNL1        0.0000
     16 H           1.9613    9.1932   -5.4830 H       1  UNL1        0.0000
@<TRIPOS>BOND
     1    14    13    1
     2    16    13    1
     3    13    15    1
     4    13     1    1
     5    11     9    1
     6    10     9    1
     7     9     1    1
     8     9    12    1
     9     1     2    1
    10     1     5    1
    11     8     5    1
    12     2     4    1
    13     2     3    1
    14     5     6    1
    15     5     7    1
