@<TRIPOS>MOLECULE
2
 16 15 0 0 0
SMALL
GASTEIGER

@<TRIPOS>ATOM
      1 SI          6.5849   12.4352   -6.5047 Si      1  UNL1        0.0000
      2 C           6.7868   12.6809   -4.6519 C.3     1  UNL1        0.0000
      3 H           7.6304   13.3653   -4.4966 H       1  UNL1        0.0000
      4 H           7.1096   11.7239   -4.2227 H       1  UNL1        0.0000
      5 C           6.9052   14.0499   -7.4909 C.3     1  UNL1        0.0000
      6 H           6.1809   14.8199   -7.2455 H       1  UNL1        0.0000
      7 H           6.8467   13.8746   -8.5610 H       1  UNL1        0.0000
      8 H           7.8932   14.4478   -7.2828 H       1  UNL1        0.0000
      9 C           7.7899   11.1364   -7.2534 C.3     1  UNL1        0.0000
     10 H           8.8258   11.4376   -7.1296 H       1  UNL1        0.0000
     11 H           7.6178   10.9879   -8.3153 H       1  UNL1        0.0000
     12 H           7.6713   10.1725   -6.7673 H       1  UNL1        0.0000
     13 C           4.8208   11.8321   -6.9551 C.3     1  UNL1        0.0000
     14 H           4.0887   12.2586   -6.2721 H       1  UNL1        0.0000
     15 H           4.7437   10.7525   -6.8816 H       1  UNL1        0.0000
     16 H           4.5453   12.1064   -7.9699 H       1  UNL1        0.0000
@<TRIPOS>BOND
     1     7     5    1
     2    11     9    1
     3    16    13    1
     4     5     8    1
     5     5     6    1
     6     5     1    1
     7     9    10    1
     8     9    12    1
     9     9     1    1
    10    13    15    1
    11    13     1    1
    12    13    14    1
    13     1     2    1
    14     2     3    1
    15     2     4    1
