@<TRIPOS>MOLECULE
1
 14 14 0 0 0
SMALL
GASTEIGER

@<TRIPOS>ATOM
      1 C          -0.0652    4.0615   12.4674 C.3     1  UNL1       -0.0237
      2 H           0.6109    4.9170   12.6019 H       1  UNL1        0.0316
      3 H          -0.8791    4.1181   13.2048 H       1  UNL1        0.0316
      4 C           0.6929    2.8226   12.6571 C.ar    1  UNL1       -0.0470
      5 C           2.0814    2.7773   12.4441 C.ar    1  UNL1       -0.0586
      6 H           2.5943    3.6787   12.1353 H       1  UNL1        0.0620
      7 C           2.8083    1.6195   12.6349 C.ar    1  UNL1       -0.0615
      8 H           3.8752    1.6222   12.4567 H       1  UNL1        0.0618
      9 C           2.1851    0.4592   13.0671 C.ar    1  UNL1       -0.0617
     10 H           2.7541   -0.4457   13.2196 H       1  UNL1        0.0618
     11 C           0.8239    0.4873   13.3241 C.ar    1  UNL1       -0.0615
     12 H           0.3277   -0.4021   13.6875 H       1  UNL1        0.0618
     13 C           0.0942    1.6437   13.1280 C.ar    1  UNL1       -0.0586
     14 H          -0.9621    1.6430   13.3588 H       1  UNL1        0.0620
@<TRIPOS>BOND
     1     6     5    1
     2     5     7   ar
     3     5     4   ar
     4     8     7    1
     5     1     2    1
     6     1     4    1
     7     1     3    1
     8     7     9   ar
     9     4    13   ar
    10     9    10    1
    11     9    11   ar
    12    13    11   ar
    13    13    14    1
    14    11    12    1
