@<TRIPOS>MOLECULE
2
 16 15 0 0 0
SMALL
GASTEIGER

@<TRIPOS>ATOM
      1 SI          9.0132    3.6681    3.1782 Si      1  UNL1        0.0000
      2 C           9.9779    3.4223    1.5585 C.3     1  UNL1        0.0000
      3 H          10.5119    4.3462    1.3372 H       1  UNL1        0.0000
      4 H           9.2298    3.3007    0.7738 H       1  UNL1        0.0000
      5 C           7.5770    4.8739    2.7703 C.3     1  UNL1        0.0000
      6 H           7.9452    5.8121    2.3685 H       1  UNL1        0.0000
      7 H           7.0012    5.1043    3.6602 H       1  UNL1        0.0000
      8 H           6.8942    4.4504    2.0409 H       1  UNL1        0.0000
      9 C          10.0342    4.4990    4.5634 C.3     1  UNL1        0.0000
     10 H          10.3807    5.4829    4.2616 H       1  UNL1        0.0000
     11 H          10.9002    3.9084    4.8385 H       1  UNL1        0.0000
     12 H           9.4277    4.6281    5.4545 H       1  UNL1        0.0000
     13 C           8.1987    2.0470    3.7822 C.3     1  UNL1        0.0000
     14 H           8.9280    1.3746    4.2202 H       1  UNL1        0.0000
     15 H           7.7041    1.5258    2.9672 H       1  UNL1        0.0000
     16 H           7.4478    2.2550    4.5381 H       1  UNL1        0.0000
@<TRIPOS>BOND
     1     4     2    1
     2     3     2    1
     3     2     1    1
     4     8     5    1
     5     6     5    1
     6     5     1    1
     7     5     7    1
     8    15    13    1
     9     1    13    1
    10     1     9    1
    11    13    14    1
    12    13    16    1
    13    10     9    1
    14     9    11    1
    15     9    12    1
