@<TRIPOS>MOLECULE
2
 16 15 0 0 0
SMALL
GASTEIGER

@<TRIPOS>ATOM
      1 SI         11.3258   -1.8140    2.2331 Si      1  UNL1        0.0000
      2 C          10.3146   -0.3322    1.6093 C.3     1  UNL1        0.0000
      3 H           9.5600   -0.0954    2.3610 H       1  UNL1        0.0000
      4 H           9.7797   -0.6118    0.7049 H       1  UNL1        0.0000
      5 C          13.1250   -1.7728    1.5696 C.3     1  UNL1        0.0000
      6 H          13.2293   -1.1285    0.7013 H       1  UNL1        0.0000
      7 H          13.4601   -2.7664    1.2870 H       1  UNL1        0.0000
      8 H          13.8070   -1.4107    2.3330 H       1  UNL1        0.0000
      9 C          10.5029   -3.4308    1.6130 C.3     1  UNL1        0.0000
     10 H          10.4927   -3.4941    0.5297 H       1  UNL1        0.0000
     11 H           9.4755   -3.5069    1.9538 H       1  UNL1        0.0000
     12 H          11.0351   -4.2996    1.9862 H       1  UNL1        0.0000
     13 C          11.3705   -1.8885    4.1413 C.3     1  UNL1        0.0000
     14 H          10.3770   -2.0357    4.5534 H       1  UNL1        0.0000
     15 H          11.7671   -0.9708    4.5623 H       1  UNL1        0.0000
     16 H          11.9931   -2.7086    4.4857 H       1  UNL1        0.0000
@<TRIPOS>BOND
     1    10     9    1
     2     6     5    1
     3     4     2    1
     4     7     5    1
     5     5     1    1
     6     5     8    1
     7     2     1    1
     8     2     3    1
     9     9    11    1
    10     9    12    1
    11     9     1    1
    12     1    13    1
    13    13    16    1
    14    13    14    1
    15    13    15    1
