@<TRIPOS>MOLECULE
2
 16 15 0 0 0
SMALL
GASTEIGER

@<TRIPOS>ATOM
      1 SI         14.4357    3.3410    2.3116 Si      1  UNL1        0.0000
      2 C          13.7460    1.7752    1.4888 C.3     1  UNL1        0.0000
      3 H          14.0217    0.9250    2.1158 H       1  UNL1        0.0000
      4 H          14.2399    1.6300    0.5314 H       1  UNL1        0.0000
      5 C          16.1021    3.8240    1.4974 C.3     1  UNL1        0.0000
      6 H          16.8244    3.0174    1.5679 H       1  UNL1        0.0000
      7 H          16.5317    4.6902    1.9896 H       1  UNL1        0.0000
      8 H          15.9857    4.0684    0.4471 H       1  UNL1        0.0000
      9 C          14.7745    3.0801    4.1744 C.3     1  UNL1        0.0000
     10 H          15.5530    2.3401    4.3323 H       1  UNL1        0.0000
     11 H          13.8858    2.7376    4.6927 H       1  UNL1        0.0000
     12 H          15.0987    4.0024    4.6462 H       1  UNL1        0.0000
     13 C          13.2342    4.8168    2.1083 C.3     1  UNL1        0.0000
     14 H          12.3728    4.7011    2.7582 H       1  UNL1        0.0000
     15 H          12.8781    4.9070    1.0855 H       1  UNL1        0.0000
     16 H          13.7204    5.7528    2.3667 H       1  UNL1        0.0000
@<TRIPOS>BOND
     1     8     5    1
     2     4     2    1
     3    15    13    1
     4     2     3    1
     5     2     1    1
     6     5     6    1
     7     5     7    1
     8     5     1    1
     9    13     1    1
    10    13    16    1
    11    13    14    1
    12     1     9    1
    13     9    10    1
    14     9    12    1
    15     9    11    1
