@<TRIPOS>MOLECULE
5
 46 46 0 0 0
SMALL
GASTEIGER

@<TRIPOS>ATOM
      1 SI         -3.9148   11.4835    2.2953 Si      1  UNL1        0.0000
      2 SI         -4.6214   13.5853    1.4432 Si      1  UNL1        0.0000
      3 SI         -3.7738   11.3910    4.6656 Si      1  UNL1        0.0000
      4 SI         -5.1928    9.6855    1.4169 Si      1  UNL1        0.0000
      5 C          -1.0680   11.9437    2.4055 C.3     1  UNL1        0.0000
      6 H          -0.8984   11.4010    3.3495 H       1  UNL1        0.0000
      7 H          -1.4448   12.9436    2.6672 H       1  UNL1        0.0000
      8 C          -2.1313   11.2244    1.5879 C.3     1  UNL1        0.0000
      9 H          -1.9203   10.1534    1.5431 H       1  UNL1        0.0000
     10 H          -2.1370   11.6019    0.5584 H       1  UNL1        0.0000
     11 C          -3.3095   14.9732    1.5331 C.3     1  UNL1        0.0000
     12 H          -3.6598   15.8962    1.0779 H       1  UNL1        0.0000
     13 H          -2.4012   14.6791    1.0126 H       1  UNL1        0.0000
     14 H          -3.0432   15.1975    2.5613 H       1  UNL1        0.0000
     15 C          -6.1612   14.1710    2.4193 C.3     1  UNL1        0.0000
     16 H          -6.5590   15.1031    2.0295 H       1  UNL1        0.0000
     17 H          -5.9285   14.3299    3.4676 H       1  UNL1        0.0000
     18 H          -6.9554   13.4331    2.3714 H       1  UNL1        0.0000
     19 C          -5.1341   13.4275   -0.3955 C.3     1  UNL1        0.0000
     20 H          -5.5119   14.3649   -0.7949 H       1  UNL1        0.0000
     21 H          -5.9096   12.6792   -0.5292 H       1  UNL1        0.0000
     22 H          -4.2845   13.1353   -1.0051 H       1  UNL1        0.0000
     23 C          -5.5446   11.1659    5.3551 C.3     1  UNL1        0.0000
     24 H          -5.5665   11.1779    6.4408 H       1  UNL1        0.0000
     25 H          -5.9764   10.2242    5.0316 H       1  UNL1        0.0000
     26 H          -6.1989   11.9588    5.0078 H       1  UNL1        0.0000
     27 C          -2.7308    9.9399    5.3672 C.3     1  UNL1        0.0000
     28 H          -2.7947    9.8783    6.4508 H       1  UNL1        0.0000
     29 H          -1.6805   10.0410    5.1094 H       1  UNL1        0.0000
     30 H          -3.0736    8.9910    4.9662 H       1  UNL1        0.0000
     31 C          -3.0836   13.0027    5.4447 C.3     1  UNL1        0.0000
     32 H          -3.1001   12.9725    6.5312 H       1  UNL1        0.0000
     33 H          -3.6720   13.8608    5.1336 H       1  UNL1        0.0000
     34 H          -2.0582   13.1819    5.1373 H       1  UNL1        0.0000
     35 C          -4.9036    8.0449    2.3678 C.3     1  UNL1        0.0000
     36 H          -5.4714    7.2203    1.9448 H       1  UNL1        0.0000
     37 H          -5.1977    8.1430    3.4083 H       1  UNL1        0.0000
     38 H          -3.8558    7.7602    2.3509 H       1  UNL1        0.0000
     39 C          -4.8160    9.3173   -0.4260 C.3     1  UNL1        0.0000
     40 H          -5.4395    8.5212   -0.8251 H       1  UNL1        0.0000
     41 H          -3.7810    9.0168   -0.5586 H       1  UNL1        0.0000
     42 H          -4.9778   10.1980   -1.0396 H       1  UNL1        0.0000
     43 C          -7.0578   10.0815    1.5539 C.3     1  UNL1        0.0000
     44 H          -7.6787    9.2630    1.2015 H       1  UNL1        0.0000
     45 H          -7.3172   10.9610    0.9733 H       1  UNL1        0.0000
     46 H          -7.3348   10.2800    2.5842 H       1  UNL1        0.0000
@<TRIPOS>BOND
     1    42    39    1
     2    22    19    1
     3    40    39    1
     4    20    19    1
     5    41    39    1
     6    21    19    1
     7    39     4    1
     8    19     2    1
     9    10     8    1
    10    45    43    1
    11    13    11    1
    12    12    11    1
    13    44    43    1
    14     4    43    1
    15     4     1    1
    16     4    35    1
    17     2    11    1
    18     2     1    1
    19     2    15    1
    20    11    14    1
    21     9     8    1
    22    43    46    1
    23     8     1    1
    24     8     5    1
    25    36    35    1
    26    16    15    1
    27     1     3    1
    28    38    35    1
    29    35    37    1
    30    18    15    1
    31     5     7    1
    32     5     6    1
    33    15    17    1
    34     3    23    1
    35     3    27    1
    36     3    31    1
    37    30    27    1
    38    26    23    1
    39    25    23    1
    40    29    27    1
    41    33    31    1
    42    34    31    1
    43    23    24    1
    44    27    28    1
    45    31    32    1
    46     1     5    0
