@<TRIPOS>MOLECULE
2
 57 58 0 0 0
SMALL
GASTEIGER

@<TRIPOS>ATOM
      1 SI         -5.0173    2.3253   -4.4050 Si      1  UNL1        0.0000
      2 C          -0.8829    0.1488   -1.2679 C.3     1  UNL1        0.0000
      3 O           0.2614    0.6682   -0.8943 O.3     1  UNL1        0.0000
      4 O          -3.6474    2.0872   -3.5355 O.3     1  UNL1        0.0000
      5 O          -3.2177    0.4171    0.7842 O.2     1  UNL1        0.0000
      6 C          -1.8201    1.3093   -1.5475 C.3     1  UNL1        0.0000
      7 H          -2.8240    0.9262   -1.7430 H       1  UNL1        0.0000
      8 C          -2.3027    1.4044    0.9033 C.ar    1  UNL1        0.0000
      9 O          -3.3742    4.9445   -2.2663 O.2     1  UNL1        0.0000
     10 C          -2.3520    1.7624   -3.9356 C.3     1  UNL1        0.0000
     11 H          -2.0838    2.2905   -4.8543 H       1  UNL1        0.0000
     12 H          -2.2864    0.6856   -4.1335 H       1  UNL1        0.0000
     13 C          -1.3857    2.1176   -2.7998 C.3     1  UNL1        0.0000
     14 H          -0.3767    1.8205   -3.1062 H       1  UNL1        0.0000
     15 C          -2.6723    4.0518   -1.8673 C.2     1  UNL1        0.0000
     16 C          -1.3764    3.6376   -2.5373 C.3     1  UNL1        0.0000
     17 H          -0.5749    3.8392   -1.8170 H       1  UNL1        0.0000
     18 C          -1.8875    1.4954    2.1993 C.ar    1  UNL1        0.0000
     19 H          -1.1672    2.1820    2.5955 H       1  UNL1        0.0000
     20 C          -2.9806    3.2805   -0.6019 C.3     1  UNL1        0.0000
     21 H          -3.9605    2.8154   -0.7319 H       1  UNL1        0.0000
     22 H          -3.0662    3.9903    0.2248 H       1  UNL1        0.0000
     23 C          -1.9311    2.2101   -0.3008 C.3     1  UNL1        0.0000
     24 H          -0.9667    2.6783   -0.0832 H       1  UNL1        0.0000
     25 C          -4.7489    0.3409   -6.4576 C.3     1  UNL1        0.0000
     26 H          -4.8415    1.1129   -7.2179 H       1  UNL1        0.0000
     27 H          -5.0715   -0.6044   -6.8939 H       1  UNL1        0.0000
     28 H          -3.6982    0.2456   -6.1907 H       1  UNL1        0.0000
     29 C          -2.5983    0.5021    2.9181 C.ar    1  UNL1        0.0000
     30 H          -2.5228    0.2855    3.9634 H       1  UNL1        0.0000
     31 C          -5.6001    0.6771   -5.2291 C.3     1  UNL1        0.0000
     32 C          -4.7580    3.6802   -5.7222 C.3     1  UNL1        0.0000
     33 H          -5.6505    3.8533   -6.3138 H       1  UNL1        0.0000
     34 H          -3.9532    3.4343   -6.4100 H       1  UNL1        0.0000
     35 H          -4.5035    4.6174   -5.2356 H       1  UNL1        0.0000
     36 C          -1.1095    4.4699   -3.7882 C.3     1  UNL1        0.0000
     37 H          -0.2633    4.0731   -4.3444 H       1  UNL1        0.0000
     38 H          -0.8899    5.4953   -3.5009 H       1  UNL1        0.0000
     39 H          -1.9883    4.4891   -4.4257 H       1  UNL1        0.0000
     40 C          -3.3903   -0.1190    2.0069 C.ar    1  UNL1        0.0000
     41 H          -4.0911   -0.9257    2.0933 H       1  UNL1        0.0000
     42 C          -6.1911    2.9148   -3.0376 C.3     1  UNL1        0.0000
     43 H          -7.1589    3.1805   -3.4468 H       1  UNL1        0.0000
     44 H          -5.7837    3.7959   -2.5532 H       1  UNL1        0.0000
     45 H          -6.3487    2.1559   -2.2781 H       1  UNL1        0.0000
     46 C           1.3522   -0.1436   -0.5103 C.3     1  UNL1        0.0000
     47 H           2.0993    0.5286   -0.0884 H       1  UNL1        0.0000
     48 H           1.7740   -0.6560   -1.3785 H       1  UNL1        0.0000
     49 H           1.0498   -0.8794    0.2396 H       1  UNL1        0.0000
     50 C          -5.4772   -0.4756   -4.2287 C.3     1  UNL1        0.0000
     51 H          -4.4428   -0.6096   -3.9151 H       1  UNL1        0.0000
     52 H          -5.8168   -1.4093   -4.6769 H       1  UNL1        0.0000
     53 H          -6.0773   -0.2866   -3.3420 H       1  UNL1        0.0000
     54 C          -7.0617    0.7843   -5.6694 C.3     1  UNL1        0.0000
     55 H          -7.1911    1.5905   -6.3874 H       1  UNL1        0.0000
     56 H          -7.7061    0.9809   -4.8165 H       1  UNL1        0.0000
     57 H          -7.3882   -0.1442   -6.1369 H       1  UNL1        0.0000
@<TRIPOS>BOND
     1    26    25    1
     2    27    25    1
     3    25    28    1
     4    25    31    1
     5    34    32    1
     6    55    54    1
     7    33    32    1
     8    57    54    1
     9    32    35    1
    10    32     1    1
    11    54    31    1
    12    54    56    1
    13    31     1    1
    14    31    50    1
    15    11    10    1
    16    52    50    1
    17    39    36    1
    18     1     4    1
    19     1    42    1
    20    37    36    1
    21    50    51    1
    22    50    53    1
    23    12    10    1
    24    10     4    1
    25    10    13    1
    26    36    38    1
    27    36    16    1
    28    43    42    1
    29    14    13    1
    30    42    44    1
    31    42    45    1
    32    13    16    1
    33    13     6    1
    34    16    15    1
    35    16    17    1
    36     9    15    2
    37    15    20    1
    38     7     6    1
    39     6     2    1
    40     6    23    1
    41    48    46    1
    42     2     3    1
    43     3    46    1
    44    21    20    1
    45    20    23    1
    46    20    22    1
    47    46    47    1
    48    46    49    1
    49    23    24    1
    50    23     8    1
    51     5     8   ar
    52     5    40   ar
    53     8    18   ar
    54    40    41    1
    55    40    29   ar
    56    18    19    1
    57    18    29   ar
    58    29    30    1
