@<TRIPOS>MOLECULE
2
 16 15 0 0 0
SMALL
GASTEIGER

@<TRIPOS>ATOM
      1 SI          0.4148    4.7098    5.0238 Si      1  UNL1        0.0000
      2 C           1.7612    6.0207    4.7421 C.3     1  UNL1        0.0000
      3 H           1.3547    7.0072    5.0053 H       1  UNL1        0.0000
      4 H           1.9822    6.0614    3.6739 H       1  UNL1        0.0000
      5 C          -0.3768    4.7953    6.7692 C.3     1  UNL1        0.0000
      6 H           0.3744    4.7047    7.5449 H       1  UNL1        0.0000
      7 H          -1.0930    3.9907    6.9085 H       1  UNL1        0.0000
      8 H          -0.9043    5.7330    6.9212 H       1  UNL1        0.0000
      9 C          -1.0138    5.1472    3.8180 C.3     1  UNL1        0.0000
     10 H          -1.8443    4.4594    3.9364 H       1  UNL1        0.0000
     11 H          -0.6910    5.0933    2.7840 H       1  UNL1        0.0000
     12 H          -1.3939    6.1491    3.9879 H       1  UNL1        0.0000
     13 C           0.9050    2.9107    4.5948 C.3     1  UNL1        0.0000
     14 H           1.7510    2.5767    5.1852 H       1  UNL1        0.0000
     15 H           1.1718    2.8180    3.5458 H       1  UNL1        0.0000
     16 H           0.0792    2.2299    4.7831 H       1  UNL1        0.0000
@<TRIPOS>BOND
     1    11     9    1
     2    15    13    1
     3     4     2    1
     4     9    10    1
     5     9    12    1
     6     9     1    1
     7    13    16    1
     8    13     1    1
     9    13    14    1
    10     2     3    1
    11     2     1    1
    12     1     5    1
    13     5     7    1
    14     5     8    1
    15     5     6    1
