@<TRIPOS>MOLECULE
2
 16 15 0 0 0
SMALL
GASTEIGER

@<TRIPOS>ATOM
      1 SI          5.1723    5.5272    2.8168 Si      1  UNL1        0.0000
      2 C           4.2658    4.6753    4.2479 C.3     1  UNL1        0.0000
      3 H           4.9551    3.9604    4.7168 H       1  UNL1        0.0000
      4 H           3.4409    4.0822    3.8464 H       1  UNL1        0.0000
      5 C           4.1272    6.8731    1.9518 C.3     1  UNL1        0.0000
      6 H           3.8037    7.6343    2.6544 H       1  UNL1        0.0000
      7 H           3.2401    6.4499    1.4908 H       1  UNL1        0.0000
      8 H           4.6977    7.3661    1.1702 H       1  UNL1        0.0000
      9 C           5.6229    4.2132    1.4962 C.3     1  UNL1        0.0000
     10 H           6.2436    3.4243    1.9091 H       1  UNL1        0.0000
     11 H           6.1682    4.6599    0.6713 H       1  UNL1        0.0000
     12 H           4.7334    3.7468    1.0858 H       1  UNL1        0.0000
     13 C           6.8240    6.3031    3.4112 C.3     1  UNL1        0.0000
     14 H           6.6676    6.9819    4.2443 H       1  UNL1        0.0000
     15 H           7.2919    6.8724    2.6139 H       1  UNL1        0.0000
     16 H           7.5366    5.5439    3.7228 H       1  UNL1        0.0000
@<TRIPOS>BOND
     1    11     9    1
     2    12     9    1
     3     8     5    1
     4     7     5    1
     5     9    10    1
     6     9     1    1
     7     5     6    1
     8     5     1    1
     9    15    13    1
    10     1    13    1
    11     1     2    1
    12    13    16    1
    13    13    14    1
    14     4     2    1
    15     2     3    1
