@<TRIPOS>MOLECULE
2
 16 15 0 0 0
SMALL
GASTEIGER

@<TRIPOS>ATOM
      1 SI          5.0915    5.6931    4.7657 Si      1  UNL1        0.0000
      2 C           5.5229    7.3863    5.5126 C.3     1  UNL1        0.0000
      3 H           5.8045    7.2313    6.5604 H       1  UNL1        0.0000
      4 H           4.6156    7.9990    5.5349 H       1  UNL1        0.0000
      5 C           6.5728    4.4698    4.8488 C.3     1  UNL1        0.0000
      6 H           7.2635    4.7419    5.6425 H       1  UNL1        0.0000
      7 H           7.1335    4.4433    3.9195 H       1  UNL1        0.0000
      8 H           6.2304    3.4591    5.0484 H       1  UNL1        0.0000
      9 C           4.4291    5.8125    2.9721 C.3     1  UNL1        0.0000
     10 H           5.0530    5.2651    2.2720 H       1  UNL1        0.0000
     11 H           4.3801    6.8447    2.6396 H       1  UNL1        0.0000
     12 H           3.4259    5.4041    2.9003 H       1  UNL1        0.0000
     13 C           3.7043    4.9204    5.8406 C.3     1  UNL1        0.0000
     14 H           4.0281    4.7637    6.8647 H       1  UNL1        0.0000
     15 H           3.3940    3.9581    5.4455 H       1  UNL1        0.0000
     16 H           2.8277    5.5591    5.8697 H       1  UNL1        0.0000
@<TRIPOS>BOND
     1    10     9    1
     2    11     9    1
     3    12     9    1
     4     9     1    1
     5     7     5    1
     6     1     5    1
     7     1     2    1
     8     1    13    1
     9     5     8    1
    10     5     6    1
    11    15    13    1
    12     2     4    1
    13     2     3    1
    14    13    16    1
    15    13    14    1
