@<TRIPOS>MOLECULE
2
 16 15 0 0 0
SMALL
GASTEIGER

@<TRIPOS>ATOM
      1 SI         -2.1375    6.5644    5.2086 Si      1  UNL1        0.0000
      2 C          -1.4160    6.8899    3.4932 C.3     1  UNL1        0.0000
      3 H          -2.2505    7.1743    2.8479 H       1  UNL1        0.0000
      4 H          -1.0351    5.9410    3.0936 H       1  UNL1        0.0000
      5 C          -2.7873    8.1396    6.0748 C.3     1  UNL1        0.0000
      6 H          -1.9851    8.7569    6.4662 H       1  UNL1        0.0000
      7 H          -3.4388    7.8861    6.9063 H       1  UNL1        0.0000
      8 H          -3.3616    8.7506    5.3853 H       1  UNL1        0.0000
      9 C          -0.9311    5.6534    6.3946 C.3     1  UNL1        0.0000
     10 H          -0.3481    6.3443    6.9949 H       1  UNL1        0.0000
     11 H          -0.2352    5.0222    5.8489 H       1  UNL1        0.0000
     12 H          -1.4800    5.0138    7.0791 H       1  UNL1        0.0000
     13 C          -3.6429    5.3941    5.0063 C.3     1  UNL1        0.0000
     14 H          -4.3996    5.8364    4.3667 H       1  UNL1        0.0000
     15 H          -4.1082    5.1795    5.9635 H       1  UNL1        0.0000
     16 H          -3.3541    4.4460    4.5631 H       1  UNL1        0.0000
@<TRIPOS>BOND
     1     3     2    1
     2     4     2    1
     3     2     1    1
     4    14    13    1
     5    16    13    1
     6    13     1    1
     7    13    15    1
     8     1     5    1
     9     1     9    1
    10     8     5    1
    11    11     9    1
    12     5     6    1
    13     5     7    1
    14     9    10    1
    15     9    12    1
