@<TRIPOS>MOLECULE
2
 16 15 0 0 0
SMALL
GASTEIGER

@<TRIPOS>ATOM
      1 SI         -1.9495    9.7343    0.6858 Si      1  UNL1        0.0000
      2 C          -0.6181    8.4649    1.1590 C.3     1  UNL1        0.0000
      3 H           0.2236    8.6308    0.4758 H       1  UNL1        0.0000
      4 H          -1.0201    7.4761    0.9071 H       1  UNL1        0.0000
      5 C          -3.5623    9.5258    1.6969 C.3     1  UNL1        0.0000
      6 H          -4.0219    8.5592    1.5133 H       1  UNL1        0.0000
      7 H          -4.2879   10.2876    1.4280 H       1  UNL1        0.0000
      8 H          -3.3820    9.6061    2.7638 H       1  UNL1        0.0000
      9 C          -2.4277    9.4892   -1.1555 C.3     1  UNL1        0.0000
     10 H          -2.8200    8.4933   -1.3355 H       1  UNL1        0.0000
     11 H          -1.5732    9.6275   -1.8101 H       1  UNL1        0.0000
     12 H          -3.1896   10.1994   -1.4595 H       1  UNL1        0.0000
     13 C          -1.3167   11.5343    0.8489 C.3     1  UNL1        0.0000
     14 H          -0.4461   11.7041    0.2225 H       1  UNL1        0.0000
     15 H          -1.0391   11.7750    1.8699 H       1  UNL1        0.0000
     16 H          -2.0811   12.2420    0.5423 H       1  UNL1        0.0000
@<TRIPOS>BOND
     1    11     9    1
     2    12     9    1
     3    10     9    1
     4     9     1    1
     5    14    13    1
     6     3     2    1
     7    16    13    1
     8     1    13    1
     9     1     2    1
    10     1     5    1
    11    13    15    1
    12     4     2    1
    13     7     5    1
    14     6     5    1
    15     5     8    1
