@<TRIPOS>MOLECULE
2
 16 15 0 0 0
SMALL
GASTEIGER

@<TRIPOS>ATOM
      1 SI          2.9380   10.5331    3.5640 Si      1  UNL1        0.0000
      2 C           1.7569    9.6302    2.3996 C.3     1  UNL1        0.0000
      3 H           2.3516    9.0022    1.7248 H       1  UNL1        0.0000
      4 H           1.2800   10.3847    1.7678 H       1  UNL1        0.0000
      5 C           2.0373   11.6714    4.8157 C.3     1  UNL1        0.0000
      6 H           0.9720   11.7176    4.6113 H       1  UNL1        0.0000
      7 H           2.4182   12.6863    4.7586 H       1  UNL1        0.0000
      8 H           2.1646   11.3336    5.8400 H       1  UNL1        0.0000
      9 C           4.0803   11.6570    2.5115 C.3     1  UNL1        0.0000
     10 H           3.5030   12.3786    1.9426 H       1  UNL1        0.0000
     11 H           4.6676   11.0788    1.8049 H       1  UNL1        0.0000
     12 H           4.7735   12.2116    3.1369 H       1  UNL1        0.0000
     13 C           4.1199    9.3537    4.5169 C.3     1  UNL1        0.0000
     14 H           3.7347    9.0879    5.4964 H       1  UNL1        0.0000
     15 H           5.0876    9.8228    4.6669 H       1  UNL1        0.0000
     16 H           4.2888    8.4309    3.9684 H       1  UNL1        0.0000
@<TRIPOS>BOND
     1     3     2    1
     2     4     2    1
     3    11     9    1
     4    10     9    1
     5     2     1    1
     6     9    12    1
     7     9     1    1
     8     1    13    1
     9     1     5    1
    10    16    13    1
    11    13    15    1
    12    13    14    1
    13     6     5    1
    14     7     5    1
    15     5     8    1
