@<TRIPOS>MOLECULE
2
 16 15 0 0 0
SMALL
GASTEIGER

@<TRIPOS>ATOM
      1 SI          5.7658   11.5847    5.3361 Si      1  UNL1        0.0000
      2 C           6.7055   10.0694    5.9910 C.3     1  UNL1        0.0000
      3 H           6.2204    9.7234    6.9105 H       1  UNL1        0.0000
      4 H           7.7143   10.4039    6.2604 H       1  UNL1        0.0000
      5 C           5.9298   12.9939    6.6283 C.3     1  UNL1        0.0000
      6 H           6.9603   13.3216    6.7216 H       1  UNL1        0.0000
      7 H           5.5920   12.6817    7.6116 H       1  UNL1        0.0000
      8 H           5.3374   13.8558    6.3389 H       1  UNL1        0.0000
      9 C           6.4115   12.2179    3.6593 C.3     1  UNL1        0.0000
     10 H           6.4234   13.3033    3.6185 H       1  UNL1        0.0000
     11 H           5.8005   11.8666    2.8329 H       1  UNL1        0.0000
     12 H           7.4271   11.8735    3.4774 H       1  UNL1        0.0000
     13 C           3.8942   11.1621    5.2264 C.3     1  UNL1        0.0000
     14 H           3.6967   10.3830    4.4964 H       1  UNL1        0.0000
     15 H           3.3224   12.0370    4.9333 H       1  UNL1        0.0000
     16 H           3.5050   10.8248    6.1822 H       1  UNL1        0.0000
@<TRIPOS>BOND
     1    11     9    1
     2    12     9    1
     3    10     9    1
     4     9     1    1
     5    14    13    1
     6    15    13    1
     7    13     1    1
     8    13    16    1
     9     1     2    1
    10     1     5    1
    11     2     4    1
    12     2     3    1
    13     8     5    1
    14     5     6    1
    15     5     7    1
