@<TRIPOS>MOLECULE
3
 39 41 0 0 0
SMALL
GASTEIGER

@<TRIPOS>ATOM
      1 N           7.5231    0.6159    4.7418 N.2     1  UNL1        0.0000
      2 AS          7.1517    1.6639    7.4576 As      1  UNL1        0.0000
      3 C           7.1197    1.5905    5.4247 C.2     1  UNL1        0.0000
      4 C           8.0632   -0.6211    5.2765 C.3     1  UNL1        0.0000
      5 H           7.6891   -1.4421    4.6578 H       1  UNL1        0.0000
      6 H           7.7355   -0.7643    6.3237 H       1  UNL1        0.0000
      7 C           9.5641   -0.5709    5.2281 C.ar    1  UNL1        0.0000
      8 C          10.2760   -0.0522    6.3040 C.ar    1  UNL1        0.0000
      9 H           9.7418    0.2611    7.1969 H       1  UNL1        0.0000
     10 C          11.6539    0.0563    6.2464 C.ar    1  UNL1        0.0000
     11 H          12.1945    0.4626    7.0881 H       1  UNL1        0.0000
     12 C          12.3384   -0.3589    5.1166 C.ar    1  UNL1        0.0000
     13 H          13.4143   -0.2763    5.0724 H       1  UNL1        0.0000
     14 C          11.6373   -0.8876    4.0460 C.ar    1  UNL1        0.0000
     15 H          12.1669   -1.2195    3.1644 H       1  UNL1        0.0000
     16 C          10.2585   -0.9899    4.0995 C.ar    1  UNL1        0.0000
     17 H           9.7141   -1.3981    3.2618 H       1  UNL1        0.0000
     18 C           5.9187    3.1566    7.5666 C.ar    1  UNL1        0.0000
     19 C           6.2537    4.3320    6.8958 C.ar    1  UNL1        0.0000
     20 H           7.1074    4.3462    6.2172 H       1  UNL1        0.0000
     21 C           5.5709    5.5119    7.1565 C.ar    1  UNL1        0.0000
     22 H           5.8974    6.4369    6.6953 H       1  UNL1        0.0000
     23 C           4.5023    5.5219    8.0377 C.ar    1  UNL1        0.0000
     24 H           3.9649    6.4384    8.2341 H       1  UNL1        0.0000
     25 C           4.1439    4.3518    8.6871 C.ar    1  UNL1        0.0000
     26 H           3.3169    4.3534    9.3835 H       1  UNL1        0.0000
     27 C           4.8672    3.1923    8.4785 C.ar    1  UNL1        0.0000
     28 H           4.6181    2.2997    9.0402 H       1  UNL1        0.0000
     29 C           5.9478    0.1825    7.9531 C.ar    1  UNL1        0.0000
     30 C           4.6277    0.1154    7.5279 C.ar    1  UNL1        0.0000
     31 H           4.2310    0.9154    6.9206 H       1  UNL1        0.0000
     32 C           3.8242   -0.9546    7.8790 C.ar    1  UNL1        0.0000
     33 H           2.7986   -0.9900    7.5385 H       1  UNL1        0.0000
     34 C           4.3293   -1.9775    8.6635 C.ar    1  UNL1        0.0000
     35 H           3.7015   -2.8125    8.9385 H       1  UNL1        0.0000
     36 C           5.6446   -1.9234    9.0986 C.ar    1  UNL1        0.0000
     37 H           6.0418   -2.7170    9.7157 H       1  UNL1        0.0000
     38 C           6.4447   -0.8523    8.7477 C.ar    1  UNL1        0.0000
     39 H           7.4768   -0.8014    9.0881 H       1  UNL1        0.0000
@<TRIPOS>BOND
     1    15    14    1
     2    17    16    1
     3    14    16   ar
     4    14    12   ar
     5    16     7   ar
     6     5     4    1
     7     1     4    1
     8     1     3    2
     9    13    12    1
    10    12    10   ar
    11     7     4    1
    12     7     8   ar
    13     4     6    1
    14     3     2    1
    15    20    19    1
    16    10     8   ar
    17    10    11    1
    18     8     9    1
    19    22    21    1
    20    19    21   ar
    21    19    18   ar
    22    31    30    1
    23    21    23   ar
    24     2    18    1
    25     2    29    1
    26    30    32   ar
    27    30    29   ar
    28    33    32    1
    29    18    27   ar
    30    32    34   ar
    31    29    38   ar
    32    23    24    1
    33    23    25   ar
    34    27    25   ar
    35    27    28    1
    36    34    35    1
    37    34    36   ar
    38    25    26    1
    39    38    39    1
    40    38    36   ar
    41    36    37    1
