@<TRIPOS>MOLECULE
2
 16 15 0 0 0
SMALL
GASTEIGER

@<TRIPOS>ATOM
      1 SI          5.7471    6.4649   11.6433 Si      1  UNL1        0.0000
      2 C           4.1512    6.1065   10.7064 C.3     1  UNL1        0.0000
      3 H           3.4741    5.5464   11.3621 H       1  UNL1        0.0000
      4 H           4.3771    5.4297    9.8729 H       1  UNL1        0.0000
      5 C           6.6701    4.9090   12.2830 C.3     1  UNL1        0.0000
      6 H           6.0545    4.3470   12.9781 H       1  UNL1        0.0000
      7 H           7.5903    5.1689   12.7972 H       1  UNL1        0.0000
      8 H           6.9285    4.2423   11.4663 H       1  UNL1        0.0000
      9 C           6.9753    7.4240   10.5310 C.3     1  UNL1        0.0000
     10 H           7.4016    6.7853    9.7643 H       1  UNL1        0.0000
     11 H           7.7977    7.8315   11.1111 H       1  UNL1        0.0000
     12 H           6.4801    8.2564   10.0375 H       1  UNL1        0.0000
     13 C           5.3903    7.5587   13.1760 C.3     1  UNL1        0.0000
     14 H           4.8874    8.4803   12.8943 H       1  UNL1        0.0000
     15 H           6.3113    7.8352   13.6802 H       1  UNL1        0.0000
     16 H           4.7681    7.0425   13.9001 H       1  UNL1        0.0000
@<TRIPOS>BOND
     1    10     9    1
     2     4     2    1
     3    12     9    1
     4     9    11    1
     5     9     1    1
     6     2     3    1
     7     2     1    1
     8     8     5    1
     9     1     5    1
    10     1    13    1
    11     5     7    1
    12     5     6    1
    13    14    13    1
    14    13    15    1
    15    13    16    1
