@<TRIPOS>MOLECULE
2
 16 15 0 0 0
SMALL
GASTEIGER

@<TRIPOS>ATOM
      1 SI          0.4297    6.4693    8.0144 Si      1  UNL1        0.0000
      2 C           0.8180    7.9137    9.1602 C.3     1  UNL1        0.0000
      3 H           0.1454    7.8791   10.0265 H       1  UNL1        0.0000
      4 H           0.5763    8.8463    8.6368 H       1  UNL1        0.0000
      5 C          -1.2912    6.5511    7.1697 C.3     1  UNL1        0.0000
      6 H          -2.0868    6.6041    7.9062 H       1  UNL1        0.0000
      7 H          -1.4766    5.6798    6.5489 H       1  UNL1        0.0000
      8 H          -1.3752    7.4288    6.5357 H       1  UNL1        0.0000
      9 C           1.7538    6.3820    6.6247 C.3     1  UNL1        0.0000
     10 H           2.3546    7.2893    6.5828 H       1  UNL1        0.0000
     11 H           1.3008    6.2500    5.6468 H       1  UNL1        0.0000
     12 H           2.4297    5.5460    6.7802 H       1  UNL1        0.0000
     13 C           0.4988    4.8333    9.0103 C.3     1  UNL1        0.0000
     14 H           1.4445    4.7332    9.5378 H       1  UNL1        0.0000
     15 H           0.3914    3.9713    8.3596 H       1  UNL1        0.0000
     16 H          -0.2989    4.7855    9.7450 H       1  UNL1        0.0000
@<TRIPOS>BOND
     1    11     9    1
     2     8     5    1
     3     7     5    1
     4    10     9    1
     5     9    12    1
     6     9     1    1
     7     5     6    1
     8     5     1    1
     9     1    13    1
    10     1     2    1
    11    15    13    1
    12     4     2    1
    13    13    14    1
    14    13    16    1
    15     2     3    1
