@<TRIPOS>MOLECULE
2
 15 14 0 0 0
SMALL
GASTEIGER

@<TRIPOS>ATOM
      1 SI          7.1834   11.8056    3.3789 Si      1  UNL1        0.0000
      2 C           4.2178   12.1009    4.0734 C.1     1  UNL1        0.0000
      3 C           5.3952   11.9442    3.8011 C.1     1  UNL1        0.0000
      4 C           7.8634   13.5050    2.8299 C.3     1  UNL1        0.0000
      5 H           8.8981   13.4387    2.5041 H       1  UNL1        0.0000
      6 H           7.8185   14.2270    3.6391 H       1  UNL1        0.0000
      7 H           7.2819   13.9044    2.0048 H       1  UNL1        0.0000
      8 C           7.4640   10.5574    1.9578 C.3     1  UNL1        0.0000
      9 H           6.8202   10.7817    1.1128 H       1  UNL1        0.0000
     10 H           7.2504    9.5409    2.2742 H       1  UNL1        0.0000
     11 H           8.4914   10.5819    1.6043 H       1  UNL1        0.0000
     12 C           8.1702   11.2116    4.9070 C.3     1  UNL1        0.0000
     13 H           7.7873   10.2637    5.2737 H       1  UNL1        0.0000
     14 H           8.1020   11.9271    5.7212 H       1  UNL1        0.0000
     15 H           9.2234   11.0739    4.6776 H       1  UNL1        0.0000
@<TRIPOS>BOND
     1     9     8    1
     2    11     8    1
     3     8    10    1
     4     8     1    1
     5     7     4    1
     6     5     4    1
     7     4     1    1
     8     4     6    1
     9     1     3    1
    10     1    12    1
    11     3     2    3
    12    15    12    1
    13    12    13    1
    14    12    14    1
