@<TRIPOS>MOLECULE
2
 15 14 0 0 0
SMALL
GASTEIGER

@<TRIPOS>ATOM
      1 SI          1.2803   15.1442    0.5778 Si      1  UNL1        0.0000
      2 C           2.1988   13.4165    2.9284 C.1     1  UNL1        0.0000
      3 C           1.8338   14.1076    1.9914 C.1     1  UNL1        0.0000
      4 C           2.6423   16.3779    0.0622 C.3     1  UNL1        0.0000
      5 H           3.5557   15.8534   -0.2001 H       1  UNL1        0.0000
      6 H           2.8801   17.0581    0.8745 H       1  UNL1        0.0000
      7 H           2.3451   16.9766   -0.7947 H       1  UNL1        0.0000
      8 C          -0.2834   16.1318    1.0739 C.3     1  UNL1        0.0000
      9 H          -0.6696   16.7185    0.2448 H       1  UNL1        0.0000
     10 H          -0.0702   16.8167    1.8895 H       1  UNL1        0.0000
     11 H          -1.0778   15.4685    1.4041 H       1  UNL1        0.0000
     12 C           0.8416   14.0389   -0.9206 C.3     1  UNL1        0.0000
     13 H           0.5185   14.6256   -1.7764 H       1  UNL1        0.0000
     14 H           0.0408   13.3460   -0.6774 H       1  UNL1        0.0000
     15 H           1.7009   13.4512   -1.2296 H       1  UNL1        0.0000
@<TRIPOS>BOND
     1    13    12    1
     2    15    12    1
     3    12    14    1
     4    12     1    1
     5     7     4    1
     6     5     4    1
     7     4     1    1
     8     4     6    1
     9     9     8    1
    10     1     8    1
    11     1     3    1
    12     8    11    1
    13     8    10    1
    14     3     2    3
