@<TRIPOS>MOLECULE
1
 13 13 0 0 0
SMALL
GASTEIGER

@<TRIPOS>ATOM
      1 C           5.6132    3.3635   -1.6922 C.1     1  UNL1       -0.0092
      2 C           6.2162    2.5936   -0.9651 C.1     1  UNL1       -0.0525
      3 C           6.9002    1.6972   -0.0994 C.ar    1  UNL1        0.0259
      4 C           8.2230    1.3288   -0.3503 C.ar    1  UNL1       -0.0463
      5 H           8.7314    1.7325   -1.2153 H       1  UNL1        0.0630
      6 C           8.8744    0.4557    0.4993 C.ar    1  UNL1       -0.0606
      7 H           9.8988    0.1749    0.2985 H       1  UNL1        0.0618
      8 C           8.2200   -0.0606    1.6062 C.ar    1  UNL1       -0.0617
      9 H           8.7325   -0.7435    2.2680 H       1  UNL1        0.0618
     10 C           6.9066    0.3016    1.8622 C.ar    1  UNL1       -0.0606
     11 H           6.3952   -0.1000    2.7255 H       1  UNL1        0.0618
     12 C           6.2471    1.1740    1.0190 C.ar    1  UNL1       -0.0463
     13 H           5.2231    1.4601    1.2133 H       1  UNL1        0.0630
@<TRIPOS>BOND
     1     1     2    3
     2     5     4    1
     3     2     3    1
     4     4     3   ar
     5     4     6   ar
     6     3    12   ar
     7     7     6    1
     8     6     8   ar
     9    12    13    1
    10    12    10   ar
    11     8    10   ar
    12     8     9    1
    13    10    11    1
