@<TRIPOS>MOLECULE
1
 13 13 0 0 0
SMALL
GASTEIGER

@<TRIPOS>ATOM
      1 C           3.4270    6.0908   -1.6913 C.1     1  UNL1       -0.0092
      2 C           2.8229    6.8598   -0.9642 C.1     1  UNL1       -0.0525
      3 C           2.1382    7.7565   -0.0994 C.ar    1  UNL1        0.0259
      4 C           0.8152    8.1238   -0.3509 C.ar    1  UNL1       -0.0463
      5 H           0.3074    7.7193   -1.2158 H       1  UNL1        0.0630
      6 C           0.1628    8.9968    0.4981 C.ar    1  UNL1       -0.0606
      7 H          -0.8618    9.2767    0.2969 H       1  UNL1        0.0618
      8 C           0.8165    9.5139    1.6051 C.ar    1  UNL1       -0.0617
      9 H           0.3032   10.1968    2.2664 H       1  UNL1        0.0618
     10 C           2.1300    9.1528    1.8617 C.ar    1  UNL1       -0.0606
     11 H           2.6408    9.5550    2.7251 H       1  UNL1        0.0618
     12 C           2.7904    8.2806    1.0191 C.ar    1  UNL1       -0.0463
     13 H           3.8145    7.9951    1.2139 H       1  UNL1        0.0630
@<TRIPOS>BOND
     1     1     2    3
     2     5     4    1
     3     2     3    1
     4     4     3   ar
     5     4     6   ar
     6     3    12   ar
     7     7     6    1
     8     6     8   ar
     9    12    13    1
    10    12    10   ar
    11     8    10   ar
    12     8     9    1
    13    10    11    1
