@<TRIPOS>MOLECULE
1
 14 14 0 0 0
SMALL
GASTEIGER

@<TRIPOS>ATOM
      1 C           7.7279    4.6426    6.6214 C.3     1  UNL1       -0.0237
      2 C           8.3024    3.4200    7.1896 C.ar    1  UNL1       -0.0470
      3 C           9.6872    3.2390    7.3201 C.ar    1  UNL1       -0.0586
      4 C          10.2157    2.0716    7.8348 C.ar    1  UNL1       -0.0615
      5 C           9.3830    1.0449    8.2482 C.ar    1  UNL1       -0.0617
      6 C           8.0089    1.2087    8.1480 C.ar    1  UNL1       -0.0615
      7 C           7.4779    2.3717    7.6328 C.ar    1  UNL1       -0.0586
      8 H           8.4329    5.4797    6.7187 H       1  UNL1        0.0316
      9 H           6.7977    4.8996    7.1436 H       1  UNL1        0.0316
     10 H          10.3559    4.0342    7.0140 H       1  UNL1        0.0620
     11 H          11.2885    1.9619    7.9192 H       1  UNL1        0.0618
     12 H           9.7977    0.1322    8.6494 H       1  UNL1        0.0618
     13 H           7.3493    0.4184    8.4795 H       1  UNL1        0.0618
     14 H           6.4018    2.4867    7.5639 H       1  UNL1        0.0620
@<TRIPOS>BOND
     1     1     8    1
     2     1     9    1
     3     1     2    1
     4    10     3    1
     5     2     3   ar
     6     2     7   ar
     7     3     4   ar
     8    14     7    1
     9     7     6   ar
    10     4    11    1
    11     4     5   ar
    12     6     5   ar
    13     6    13    1
    14     5    12    1
