@<TRIPOS>MOLECULE
1
 14 14 0 0 0
SMALL
GASTEIGER

@<TRIPOS>ATOM
      1 C           7.2566    1.7705    3.9955 C.3     1  UNL1       -0.0237
      2 C           8.5173    1.4487    3.3231 C.ar    1  UNL1       -0.0470
      3 C           8.5583    0.9423    2.0141 C.ar    1  UNL1       -0.0586
      4 C           9.7562    0.7121    1.3655 C.ar    1  UNL1       -0.0615
      5 C          10.9609    0.9504    2.0064 C.ar    1  UNL1       -0.0617
      6 C          10.9458    1.3881    3.3245 C.ar    1  UNL1       -0.0615
      7 C           9.7529    1.6273    3.9722 C.ar    1  UNL1       -0.0586
      8 H           7.2898    1.4170    5.0332 H       1  UNL1        0.0316
      9 H           6.4188    1.2796    3.4851 H       1  UNL1        0.0316
     10 H           7.6275    0.7044    1.5137 H       1  UNL1        0.0620
     11 H           9.7519    0.3288    0.3537 H       1  UNL1        0.0618
     12 H          11.8971    0.7718    1.4988 H       1  UNL1        0.0618
     13 H          11.8797    1.5360    3.8502 H       1  UNL1        0.0618
     14 H           9.7553    1.9460    5.0081 H       1  UNL1        0.0620
@<TRIPOS>BOND
     1    11     4    1
     2     4     5   ar
     3     4     3   ar
     4    12     5    1
     5    10     3    1
     6     5     6   ar
     7     3     2   ar
     8     2     7   ar
     9     2     1    1
    10     6    13    1
    11     6     7   ar
    12     9     1    1
    13     7    14    1
    14     1     8    1
