@<TRIPOS>MOLECULE
2
 16 15 0 0 0
SMALL
GASTEIGER

@<TRIPOS>ATOM
      1 SI         11.2717   12.8545   17.0647 Si      1  UNL1        0.0000
      2 C          13.1083   12.7280   16.6737 C.3     1  UNL1        0.0000
      3 H          13.6731   12.5545   17.6007 H       1  UNL1        0.0000
      4 H          13.4446   13.7013   16.2877 H       1  UNL1        0.0000
      5 C          10.5924   11.1249   17.5474 C.3     1  UNL1        0.0000
      6 H          11.0040   10.3529   16.8995 H       1  UNL1        0.0000
      7 H           9.5107   11.0881   17.4645 H       1  UNL1        0.0000
      8 H          10.8453   10.8750   18.5734 H       1  UNL1        0.0000
      9 C          10.8099   14.0419   18.5013 C.3     1  UNL1        0.0000
     10 H          11.2985   13.7519   19.4268 H       1  UNL1        0.0000
     11 H           9.7401   14.0521   18.6856 H       1  UNL1        0.0000
     12 H          11.1131   15.0602   18.2788 H       1  UNL1        0.0000
     13 C          10.3525   13.4715   15.5030 C.3     1  UNL1        0.0000
     14 H          10.6402   14.4896   15.2597 H       1  UNL1        0.0000
     15 H           9.2761   13.4614   15.6409 H       1  UNL1        0.0000
     16 H          10.5830   12.8491   14.6420 H       1  UNL1        0.0000
@<TRIPOS>BOND
     1    16    13    1
     2    14    13    1
     3    13    15    1
     4    13     1    1
     5     4     2    1
     6     2     1    1
     7     2     3    1
     8     6     5    1
     9     1     5    1
    10     1     9    1
    11     7     5    1
    12     5     8    1
    13    12     9    1
    14     9    11    1
    15     9    10    1
