@<TRIPOS>MOLECULE
2
 16 15 0 0 0
SMALL
GASTEIGER

@<TRIPOS>ATOM
      1 SI         12.5561    9.1897   12.2256 Si      1  UNL1        0.0000
      2 C          12.0163   10.1541   13.7553 C.3     1  UNL1        0.0000
      3 H          11.3430    9.5274   14.3542 H       1  UNL1        0.0000
      4 H          11.3936   10.9907   13.4098 H       1  UNL1        0.0000
      5 C          12.7373    7.3179   12.6100 C.3     1  UNL1        0.0000
      6 H          13.4644    7.1251   13.3919 H       1  UNL1        0.0000
      7 H          13.0565    6.7715   11.7282 H       1  UNL1        0.0000
      8 H          11.7893    6.8949   12.9278 H       1  UNL1        0.0000
      9 C          11.3261    9.3064   10.7586 C.3     1  UNL1        0.0000
     10 H          10.3524    8.9102   11.0292 H       1  UNL1        0.0000
     11 H          11.6765    8.7524    9.8931 H       1  UNL1        0.0000
     12 H          11.1844   10.3378   10.4508 H       1  UNL1        0.0000
     13 C          14.2363    9.8554   11.5872 C.3     1  UNL1        0.0000
     14 H          14.1495   10.8980   11.2894 H       1  UNL1        0.0000
     15 H          14.5876    9.2991   10.7226 H       1  UNL1        0.0000
     16 H          15.0096    9.7948   12.3519 H       1  UNL1        0.0000
@<TRIPOS>BOND
     1    11     9    1
     2    12     9    1
     3    15    13    1
     4     9    10    1
     5     9     1    1
     6    14    13    1
     7    13     1    1
     8    13    16    1
     9     7     5    1
    10     1     5    1
    11     1     2    1
    12     5     8    1
    13     5     6    1
    14     4     2    1
    15     2     3    1
