@<TRIPOS>MOLECULE
2
 16 15 0 0 0
SMALL
GASTEIGER

@<TRIPOS>ATOM
      1 SI          8.1297    8.9561   12.2029 Si      1  UNL1        0.0000
      2 C           8.4832   10.0318   13.7130 C.3     1  UNL1        0.0000
      3 H           8.9666   10.9434   13.3155 H       1  UNL1        0.0000
      4 H           9.2800    9.5439   14.2987 H       1  UNL1        0.0000
      5 C           6.4288    9.4575   11.4677 C.3     1  UNL1        0.0000
      6 H           5.7298    9.7148   12.2642 H       1  UNL1        0.0000
      7 H           5.9819    8.6670   10.8719 H       1  UNL1        0.0000
      8 H           6.5289   10.3322   10.8310 H       1  UNL1        0.0000
      9 C           8.0977    7.0845   12.6480 C.3     1  UNL1        0.0000
     10 H           9.0304    6.7783   13.1130 H       1  UNL1        0.0000
     11 H           7.9712    6.4814   11.7542 H       1  UNL1        0.0000
     12 H           7.2900    6.8300   13.3267 H       1  UNL1        0.0000
     13 C           9.4153    9.1099   10.7838 C.3     1  UNL1        0.0000
     14 H           9.5108   10.1409   10.4556 H       1  UNL1        0.0000
     15 H           9.1358    8.5169    9.9178 H       1  UNL1        0.0000
     16 H          10.3989    8.7781   11.1034 H       1  UNL1        0.0000
@<TRIPOS>BOND
     1    15    13    1
     2    14    13    1
     3    13    16    1
     4    13     1    1
     5     8     5    1
     6     7     5    1
     7     5     1    1
     8     5     6    1
     9    11     9    1
    10     1     9    1
    11     1     2    1
    12     9    10    1
    13     9    12    1
    14     3     2    1
    15     2     4    1
