@<TRIPOS>MOLECULE
2
 16 15 0 0 0
SMALL
GASTEIGER

@<TRIPOS>ATOM
      1 SI          9.4215   12.8311   16.9840 Si      1  UNL1        0.0000
      2 C           7.5990   12.5745   16.5670 C.3     1  UNL1        0.0000
      3 H           7.2562   13.5241   16.1104 H       1  UNL1        0.0000
      4 H           7.0377   12.4832   17.5184 H       1  UNL1        0.0000
      5 C          10.3669   13.3387   15.4002 C.3     1  UNL1        0.0000
      6 H          10.3097   12.5555   14.6498 H       1  UNL1        0.0000
      7 H          11.4165   13.5289   15.6012 H       1  UNL1        0.0000
      8 H           9.9481   14.2414   14.9663 H       1  UNL1        0.0000
      9 C           9.7670   14.1790   18.3114 C.3     1  UNL1        0.0000
     10 H           9.4162   15.1525   17.9824 H       1  UNL1        0.0000
     11 H          10.8283   14.2698   18.5231 H       1  UNL1        0.0000
     12 H           9.2668   13.9527   19.2489 H       1  UNL1        0.0000
     13 C          10.2020   11.2102   17.6521 C.3     1  UNL1        0.0000
     14 H           9.9062   11.0164   18.6787 H       1  UNL1        0.0000
     15 H          11.2859   11.2575   17.6324 H       1  UNL1        0.0000
     16 H           9.8950   10.3624   17.0451 H       1  UNL1        0.0000
@<TRIPOS>BOND
     1     6     5    1
     2     8     5    1
     3     5     7    1
     4     5     1    1
     5     3     2    1
     6     2     1    1
     7     2     4    1
     8     1    13    1
     9     1     9    1
    10    16    13    1
    11    15    13    1
    12    13    14    1
    13    10     9    1
    14     9    11    1
    15     9    12    1
