@<TRIPOS>MOLECULE
1
 14 14 0 0 0
SMALL
GASTEIGER

@<TRIPOS>ATOM
      1 C           1.6054   17.7727   16.2774 C.3     1  UNL1       -0.0237
      2 H           0.6319   17.5891   15.8041 H       1  UNL1        0.0316
      3 H           1.5013   17.5283   17.3431 H       1  UNL1        0.0316
      4 C           1.9298   19.2080   16.1526 C.ar    1  UNL1       -0.0470
      5 C           2.6399   19.8872   17.1518 C.ar    1  UNL1       -0.0586
      6 H           2.9544   19.3508   18.0371 H       1  UNL1        0.0620
      7 C           2.9298   21.2327   17.0442 C.ar    1  UNL1       -0.0615
      8 H           3.4696   21.7292   17.8398 H       1  UNL1        0.0618
      9 C           2.5180   21.9555   15.9363 C.ar    1  UNL1       -0.0617
     10 H           2.7468   23.0075   15.8519 H       1  UNL1        0.0618
     11 C           1.7853   21.3134   14.9514 C.ar    1  UNL1       -0.0615
     12 H           1.4300   21.8727   14.0965 H       1  UNL1        0.0618
     13 C           1.4883   19.9705   15.0621 C.ar    1  UNL1       -0.0586
     14 H           0.8852   19.5001   14.2969 H       1  UNL1        0.0620
@<TRIPOS>BOND
     1    12    11    1
     2    14    13    1
     3    11    13   ar
     4    11     9   ar
     5    13     4   ar
     6     2     1    1
     7    10     9    1
     8     9     7   ar
     9     4     1    1
    10     4     5   ar
    11     1     3    1
    12     7     5   ar
    13     7     8    1
    14     5     6    1
