@<TRIPOS>MOLECULE
1
 4 3 0 0 0
SMALL
GASTEIGER

@<TRIPOS>ATOM
      1 C          13.9921    9.9074    9.2240 C.3     1  UNL1       -0.0681
      2 H          13.8367   10.7019    9.9700 H       1  UNL1        0.0227
      3 H          13.3651   10.1630    8.3538 H       1  UNL1        0.0227
      4 H          15.0444    9.9710    8.8978 H       1  UNL1        0.0227
@<TRIPOS>BOND
     1     3     1    1
     2     4     1    1
     3     1     2    1
