@<TRIPOS>MOLECULE
1
 4 3 0 0 0
SMALL
GASTEIGER

@<TRIPOS>ATOM
      1 C           6.0333   15.6206   10.0972 C.3     1  UNL1       -0.0681
      2 H           5.0453   16.0926    9.9586 H       1  UNL1        0.0227
      3 H           5.9948   15.0685   11.0506 H       1  UNL1        0.0227
      4 H           6.1460   14.8685    9.3010 H       1  UNL1        0.0227
@<TRIPOS>BOND
     1     4     1    1
     2     2     1    1
     3     1     3    1
