@<TRIPOS>MOLECULE
1
 4 3 0 0 0
SMALL
GASTEIGER

@<TRIPOS>ATOM
      1 C           9.3517   16.0165    9.5334 C.3     1  UNL1       -0.0681
      2 H           9.3003   15.4849    8.5698 H       1  UNL1        0.0227
      3 H           9.5275   15.2355   10.2959 H       1  UNL1        0.0227
      4 H          10.2698   16.6289    9.5039 H       1  UNL1        0.0227
@<TRIPOS>BOND
     1     2     1    1
     2     4     1    1
     3     1     3    1
