@<TRIPOS>MOLECULE
1
 4 3 0 0 0
SMALL
GASTEIGER

@<TRIPOS>ATOM
      1 C          11.8458    8.2549   11.2434 C.3     1  UNL1       -0.0681
      2 H          11.4191    7.3366   11.6810 H       1  UNL1        0.0227
      3 H          11.0458    8.6942   10.6187 H       1  UNL1        0.0227
      4 H          11.9901    8.9598   12.0778 H       1  UNL1        0.0227
@<TRIPOS>BOND
     1     3     1    1
     2     1     2    1
     3     1     4    1
