@<TRIPOS>MOLECULE
4
 15 15 0 0 0
SMALL
GASTEIGER

@<TRIPOS>ATOM
      1 N           4.5073    7.4272   13.3898 N.3     1  UNL1       -0.3175
      2 H           4.6705    8.1524   14.0824 H       1  UNL1        0.1192
      3 H           4.5492    7.6981   12.4188 H       1  UNL1        0.1192
      4 C           4.1479    6.1900   13.7277 C.3     1  UNL1        0.0910
      5 C           4.1836    5.9956   15.1836 C.ar    1  UNL1       -0.0233
      6 C           3.1267    5.3842   15.8629 C.ar    1  UNL1       -0.0567
      7 H           2.2448    5.0897   15.3130 H       1  UNL1        0.0621
      8 C           3.1876    5.1837   17.2277 C.ar    1  UNL1       -0.0614
      9 H           2.3572    4.7176   17.7369 H       1  UNL1        0.0618
     10 C           4.3075    5.5751   17.9459 C.ar    1  UNL1       -0.0617
     11 H           4.3535    5.4088   19.0122 H       1  UNL1        0.0618
     12 C           5.3625    6.1832   17.2873 C.ar    1  UNL1       -0.0614
     13 H           6.2410    6.4889   17.8364 H       1  UNL1        0.0618
     14 C           5.2968    6.4052   15.9249 C.ar    1  UNL1       -0.0567
     15 H           6.1419    6.8537   15.4224 H       1  UNL1        0.0621
@<TRIPOS>BOND
     1     3     1    1
     2     1     4    1
     3     1     2    1
     4     4     5    1
     5     5     6   ar
     6     5    14   ar
     7     7     6    1
     8    15    14    1
     9     6     8   ar
    10    14    12   ar
    11     8     9    1
    12     8    10   ar
    13    12    13    1
    14    12    10   ar
    15    10    11    1
