@<TRIPOS>MOLECULE
2
 16 15 0 0 0
SMALL
GASTEIGER

@<TRIPOS>ATOM
      1 SI         -0.0240   12.1408   15.3556 Si      1  UNL1        0.0000
      2 C           1.0884   11.3015   14.0775 C.3     1  UNL1        0.0000
      3 H           0.6593   10.3225   13.8333 H       1  UNL1        0.0000
      4 H           2.0737   11.1070   14.5233 H       1  UNL1        0.0000
      5 C          -0.3911   10.9933   16.8513 C.3     1  UNL1        0.0000
      6 H          -1.0935   11.4547   17.5373 H       1  UNL1        0.0000
      7 H           0.5121   10.7703   17.4097 H       1  UNL1        0.0000
      8 H          -0.8196   10.0486   16.5320 H       1  UNL1        0.0000
      9 C          -1.7233   12.5293   14.5480 C.3     1  UNL1        0.0000
     10 H          -2.2213   13.3482   15.0577 H       1  UNL1        0.0000
     11 H          -2.3868   11.6697   14.5933 H       1  UNL1        0.0000
     12 H          -1.6080   12.8167   13.5032 H       1  UNL1        0.0000
     13 C           0.8109   13.7054   16.0851 C.3     1  UNL1        0.0000
     14 H           1.8131   13.4805   16.4421 H       1  UNL1        0.0000
     15 H           0.2453   14.0928   16.9272 H       1  UNL1        0.0000
     16 H           0.8890   14.5000   15.3487 H       1  UNL1        0.0000
@<TRIPOS>BOND
     1    12     9    1
     2     3     2    1
     3     2     4    1
     4     2     1    1
     5     9    11    1
     6     9    10    1
     7     9     1    1
     8    16    13    1
     9     1    13    1
    10     1     5    1
    11    13    14    1
    12    13    15    1
    13     8     5    1
    14     5     7    1
    15     5     6    1
