@<TRIPOS>MOLECULE
1
 4 3 0 0 0
SMALL
GASTEIGER

@<TRIPOS>ATOM
      1 C          17.2788    1.5598   17.0477 C.3     1  UNL1       -0.0681
      2 H          16.9582    0.7820   17.7433 H       1  UNL1        0.0227
      3 H          18.2294    1.9318   17.4275 H       1  UNL1        0.0227
      4 H          17.4947    1.0527   16.0976 H       1  UNL1        0.0227
@<TRIPOS>BOND
     1     4     1    1
     2     1     3    1
     3     1     2    1
