@<TRIPOS>MOLECULE
2
 16 15 0 0 0
SMALL
GASTEIGER

@<TRIPOS>ATOM
      1 SI          2.8095    1.5492   10.1769 Si      1  UNL1        0.0000
      2 C           4.5948    1.9486    9.7349 C.3     1  UNL1        0.0000
      3 C           1.6275    2.9040    9.5130 C.3     1  UNL1        0.0000
      4 C           2.1471   -0.1266    9.5018 C.3     1  UNL1        0.0000
      5 C           2.5728    1.4752   12.0804 C.3     1  UNL1        0.0000
      6 H           4.6345    2.1229    8.6485 H       1  UNL1        0.0000
      7 H           5.1921    1.0386    9.8987 H       1  UNL1        0.0000
      8 H           0.6194    2.7817    9.8971 H       1  UNL1        0.0000
      9 H           1.5687    2.8815    8.4297 H       1  UNL1        0.0000
     10 H           1.9764    3.8909    9.8037 H       1  UNL1        0.0000
     11 H           1.1157   -0.3013    9.7935 H       1  UNL1        0.0000
     12 H           2.7362   -0.9601    9.8731 H       1  UNL1        0.0000
     13 H           2.1889   -0.1580    8.4172 H       1  UNL1        0.0000
     14 H           1.5337    1.3129   12.3506 H       1  UNL1        0.0000
     15 H           2.8933    2.4062   12.5430 H       1  UNL1        0.0000
     16 H           3.1512    0.6695   12.5213 H       1  UNL1        0.0000
@<TRIPOS>BOND
     1    13     4    1
     2     9     3    1
     3     6     2    1
     4     4    11    1
     5     4    12    1
     6     4     1    1
     7     3    10    1
     8     3     8    1
     9     3     1    1
    10     2     7    1
    11     2     1    1
    12     1     5    1
    13     5    14    1
    14     5    16    1
    15     5    15    1
