@<TRIPOS>MOLECULE
2
 16 15 0 0 0
SMALL
GASTEIGER

@<TRIPOS>ATOM
      1 SI         -2.7486    4.6754    8.3152 Si      1  UNL1        0.0000
      2 C          -1.6498    4.0076    6.9417 C.3     1  UNL1        0.0000
      3 C          -2.6015    3.5160    9.8463 C.3     1  UNL1        0.0000
      4 C          -4.6227    4.8063    7.9234 C.3     1  UNL1        0.0000
      5 C          -2.1974    6.4465    8.8300 C.3     1  UNL1        0.0000
      6 H          -1.3680    4.8517    6.2904 H       1  UNL1        0.0000
      7 H          -2.2814    3.3731    6.2966 H       1  UNL1        0.0000
      8 H          -2.6762    4.0549   10.7871 H       1  UNL1        0.0000
      9 H          -1.6510    2.9758    9.8340 H       1  UNL1        0.0000
     10 H          -3.3862    2.7655    9.8484 H       1  UNL1        0.0000
     11 H          -5.1876    5.1696    8.7772 H       1  UNL1        0.0000
     12 H          -5.0362    3.8409    7.6460 H       1  UNL1        0.0000
     13 H          -4.8041    5.4863    7.0962 H       1  UNL1        0.0000
     14 H          -2.9034    7.1860    8.4675 H       1  UNL1        0.0000
     15 H          -1.2273    6.6999    8.4130 H       1  UNL1        0.0000
     16 H          -2.1333    6.5624    9.9077 H       1  UNL1        0.0000
@<TRIPOS>BOND
     1     6     2    1
     2     7     2    1
     3     2     1    1
     4    13     4    1
     5    12     4    1
     6     4     1    1
     7     4    11    1
     8     1     5    1
     9     1     3    1
    10    15     5    1
    11    14     5    1
    12     5    16    1
    13     9     3    1
    14     3    10    1
    15     3     8    1
