@<TRIPOS>MOLECULE
1
 4 3 0 0 0
SMALL
GASTEIGER

@<TRIPOS>ATOM
      1 C          -0.2345   12.5571   12.3407 C.3     1  UNL1       -0.0681
      2 H          -1.1617   12.4524   12.8991 H       1  UNL1        0.0227
      3 H           0.0936   13.5897   12.4700 H       1  UNL1        0.0227
      4 H          -0.5274   12.4517   11.2989 H       1  UNL1        0.0227
@<TRIPOS>BOND
     1     4     1    1
     2     1     3    1
     3     1     2    1
