@<TRIPOS>MOLECULE
1
 4 3 0 0 0
SMALL
GASTEIGER

@<TRIPOS>ATOM
      1 C          -0.2344    9.8295   12.3408 C.3     1  UNL1       -0.0681
      2 H          -1.1616    9.9341   12.8992 H       1  UNL1        0.0227
      3 H           0.0938    8.7969   12.4701 H       1  UNL1        0.0227
      4 H          -0.5273    9.9348   11.2990 H       1  UNL1        0.0227
@<TRIPOS>BOND
     1     4     1    1
     2     1     3    1
     3     1     2    1
