@<TRIPOS>MOLECULE
2
 35 37 0 0 0
SMALL
GASTEIGER

@<TRIPOS>ATOM
      1 P          -1.3461   15.5826    6.0157 P.3     1  UNL1       -0.0340
      2 C          -0.9314   17.1579    5.5931 C.3     1  UNL1        0.0344
      3 C          -2.9541   15.5915    6.8760 C.ar    1  UNL1       -0.0185
      4 C          -3.4396   16.8046    7.3425 C.ar    1  UNL1       -0.0538
      5 H          -2.8388   17.6873    7.1755 H       1  UNL1        0.0624
      6 C          -4.6592   16.8564    7.9922 C.ar    1  UNL1       -0.0612
      7 H          -5.0385   17.7988    8.3600 H       1  UNL1        0.0618
      8 C          -5.3969   15.6969    8.1730 C.ar    1  UNL1       -0.0617
      9 H          -6.3504   15.7358    8.6796 H       1  UNL1        0.0618
     10 C          -4.9154   14.4850    7.7031 C.ar    1  UNL1       -0.0612
     11 H          -5.4940   13.5831    7.8435 H       1  UNL1        0.0618
     12 C          -3.6951   14.4292    7.0541 C.ar    1  UNL1       -0.0538
     13 H          -3.3117   13.4873    6.6850 H       1  UNL1        0.0624
     14 C          -1.6931   14.4268    4.6232 C.ar    1  UNL1       -0.0185
     15 C          -2.4619   14.9725    3.6008 C.ar    1  UNL1       -0.0538
     16 H          -2.7823   16.0010    3.6958 H       1  UNL1        0.0624
     17 C          -2.7976   14.2155    2.4954 C.ar    1  UNL1       -0.0612
     18 H          -3.3971   14.6453    1.7067 H       1  UNL1        0.0618
     19 C          -2.3590   12.9034    2.4013 C.ar    1  UNL1       -0.0617
     20 H          -2.6157   12.3069    1.5378 H       1  UNL1        0.0618
     21 C          -1.5923   12.3556    3.4161 C.ar    1  UNL1       -0.0612
     22 H          -1.2525   11.3323    3.3436 H       1  UNL1        0.0618
     23 C          -1.2594   13.1110    4.5281 C.ar    1  UNL1       -0.0538
     24 H          -0.6710   12.6721    5.3213 H       1  UNL1        0.0624
     25 C          -0.2674   14.5728    7.1099 C.ar    1  UNL1       -0.0185
     26 C          -0.6204   14.2197    8.4066 C.ar    1  UNL1       -0.0538
     27 H          -1.5866   14.5056    8.7970 H       1  UNL1        0.0624
     28 C           0.2610   13.4944    9.1892 C.ar    1  UNL1       -0.0612
     29 H          -0.0183   13.2154   10.1948 H       1  UNL1        0.0618
     30 C           1.4962   13.1225    8.6853 C.ar    1  UNL1       -0.0617
     31 H           2.1772   12.5465    9.2948 H       1  UNL1        0.0618
     32 C           1.8647   13.4998    7.4024 C.ar    1  UNL1       -0.0612
     33 H           2.8319   13.2172    7.0142 H       1  UNL1        0.0618
     34 C           0.9928   14.2364    6.6238 C.ar    1  UNL1       -0.0538
     35 H           1.2668   14.5625    5.6264 H       1  UNL1        0.0624
@<TRIPOS>BOND
     1    20    19    1
     2    18    17    1
     3    19    17   ar
     4    19    21   ar
     5    17    15   ar
     6    22    21    1
     7    21    23   ar
     8    15    16    1
     9    15    14   ar
    10    23    14   ar
    11    23    24    1
    12    14     1    1
    13     2     1    1
    14    35    34    1
    15     1     3    1
    16     1    25    1
    17    34    25   ar
    18    34    32   ar
    19    13    12    1
    20     3    12   ar
    21     3     4   ar
    22    33    32    1
    23    12    10   ar
    24    25    26   ar
    25     5     4    1
    26     4     6   ar
    27    32    30   ar
    28    10    11    1
    29    10     8   ar
    30     6     8   ar
    31     6     7    1
    32     8     9    1
    33    26    27    1
    34    26    28   ar
    35    30    28   ar
    36    30    31    1
    37    28    29    1
