@<TRIPOS>MOLECULE
2
 16 15 0 0 0
SMALL
GASTEIGER

@<TRIPOS>ATOM
      1 SI         -0.9274    3.3700    2.3504 Si      1  UNL1        0.0000
      2 C          -0.5752    3.0341    4.1812 C.3     1  UNL1        0.0000
      3 C          -2.6859    4.1070    2.1134 C.3     1  UNL1        0.0000
      4 C          -0.8324    1.8802    1.1567 C.3     1  UNL1        0.0000
      5 C           0.2804    4.7053    1.6766 C.3     1  UNL1        0.0000
      6 H          -1.1428    3.7840    4.7435 H       1  UNL1        0.0000
      7 H           0.4781    3.2619    4.3803 H       1  UNL1        0.0000
      8 H          -2.7701    4.5733    1.1366 H       1  UNL1        0.0000
      9 H          -2.9287    4.8647    2.8535 H       1  UNL1        0.0000
     10 H          -3.4370    3.3254    2.1617 H       1  UNL1        0.0000
     11 H          -1.5619    1.9857    0.3593 H       1  UNL1        0.0000
     12 H          -1.0617    0.9613    1.6861 H       1  UNL1        0.0000
     13 H           0.1436    1.7776    0.6936 H       1  UNL1        0.0000
     14 H           0.0746    4.9290    0.6350 H       1  UNL1        0.0000
     15 H           0.1944    5.6333    2.2333 H       1  UNL1        0.0000
     16 H           1.3153    4.3831    1.7408 H       1  UNL1        0.0000
@<TRIPOS>BOND
     1    11     4    1
     2    14     5    1
     3    13     4    1
     4     8     3    1
     5     4    12    1
     6     4     1    1
     7     5    16    1
     8     5    15    1
     9     5     1    1
    10     3    10    1
    11     3     1    1
    12     3     9    1
    13     1     2    1
    14     2     7    1
    15     2     6    1
