@<TRIPOS>MOLECULE
2
 16 15 0 0 0
SMALL
GASTEIGER

@<TRIPOS>ATOM
      1 SI          4.7480   -1.2994    7.5921 Si      1  UNL1        0.0000
      2 C           4.1141    0.4023    8.0770 C.3     1  UNL1        0.0000
      3 C           4.6640   -1.6930    5.7097 C.3     1  UNL1        0.0000
      4 C           3.6949   -2.6428    8.4584 C.3     1  UNL1        0.0000
      5 C           6.5881   -1.5001    8.0798 C.3     1  UNL1        0.0000
      6 H           4.6621    1.1561    7.4989 H       1  UNL1        0.0000
      7 H           5.0164   -2.6967    5.4915 H       1  UNL1        0.0000
      8 H           5.2751   -1.0018    5.1364 H       1  UNL1        0.0000
      9 H           4.0929   -3.6372    8.2824 H       1  UNL1        0.0000
     10 H           2.6728   -2.6312    8.0918 H       1  UNL1        0.0000
     11 H           6.9352   -2.5107    7.8879 H       1  UNL1        0.0000
     12 H           6.7411   -1.2913    9.1339 H       1  UNL1        0.0000
     13 H           3.0694    0.4684    7.7448 H       1  UNL1        0.0000
     14 H           3.6475   -1.6159    5.3354 H       1  UNL1        0.0000
     15 H           3.6587   -2.4857    9.5329 H       1  UNL1        0.0000
     16 H           7.2210   -0.8260    7.5100 H       1  UNL1        0.0000
@<TRIPOS>BOND
     1     8     3    1
     2    14     3    1
     3     7     3    1
     4     3     1    1
     5     6     2    1
     6    16     5    1
     7     1     2    1
     8     1     5    1
     9     1     4    1
    10    13     2    1
    11    11     5    1
    12     5    12    1
    13    10     4    1
    14     9     4    1
    15     4    15    1
