@<TRIPOS>MOLECULE
2
 16 15 0 0 0
SMALL
GASTEIGER

@<TRIPOS>ATOM
      1 SI          0.9557   -0.0844   12.7261 Si      1  UNL1        0.0000
      2 C           2.3111   -0.3419   11.4483 C.3     1  UNL1        0.0000
      3 C          -0.4597    1.0888   12.1604 C.3     1  UNL1        0.0000
      4 C           0.0531   -1.7233   13.1668 C.3     1  UNL1        0.0000
      5 C           1.5447    0.6096   14.4184 C.3     1  UNL1        0.0000
      6 H           2.8628   -1.2268   11.8096 H       1  UNL1        0.0000
      7 H          -1.2917    1.0287   12.8559 H       1  UNL1        0.0000
      8 H          -0.8404    0.8059   11.1835 H       1  UNL1        0.0000
      9 H          -0.7516   -1.5799   13.8828 H       1  UNL1        0.0000
     10 H           0.7472   -2.4406   13.5950 H       1  UNL1        0.0000
     11 H           0.8371    0.3416   15.1974 H       1  UNL1        0.0000
     12 H           1.6291    1.6923   14.4268 H       1  UNL1        0.0000
     13 H           1.7932   -0.6895   10.5381 H       1  UNL1        0.0000
     14 H          -0.1594    2.1318   12.1162 H       1  UNL1        0.0000
     15 H          -0.3764   -2.1810   12.2803 H       1  UNL1        0.0000
     16 H           2.5055    0.1970   14.7085 H       1  UNL1        0.0000
@<TRIPOS>BOND
     1    13     2    1
     2     8     3    1
     3     2     6    1
     4     2     1    1
     5    14     3    1
     6     3     1    1
     7     3     7    1
     8    15     4    1
     9     1     4    1
    10     1     5    1
    11     4    10    1
    12     4     9    1
    13     5    12    1
    14     5    16    1
    15     5    11    1
