@<TRIPOS>MOLECULE
2
 16 15 0 0 0
SMALL
GASTEIGER

@<TRIPOS>ATOM
      1 SI          6.6599   -0.7732   12.6134 Si      1  UNL1        0.0000
      2 C           6.4390    0.6665   11.4248 C.3     1  UNL1        0.0000
      3 C           6.1854   -2.4336   11.7891 C.3     1  UNL1        0.0000
      4 C           5.5130   -0.5530   14.1335 C.3     1  UNL1        0.0000
      5 C           8.4365   -0.9984   13.3147 C.3     1  UNL1        0.0000
      6 H           6.7770    1.5796   11.9310 H       1  UNL1        0.0000
      7 H           6.0410   -3.2132   12.5310 H       1  UNL1        0.0000
      8 H           6.9564   -2.7756   11.1065 H       1  UNL1        0.0000
      9 H           5.5923   -1.4011   14.8065 H       1  UNL1        0.0000
     10 H           4.4745   -0.4754   13.8232 H       1  UNL1        0.0000
     11 H           8.5033   -1.8523   13.9823 H       1  UNL1        0.0000
     12 H           8.7543   -0.1223   13.8726 H       1  UNL1        0.0000
     13 H           7.1307    0.5261   10.5832 H       1  UNL1        0.0000
     14 H           5.2626   -2.3391   11.2220 H       1  UNL1        0.0000
     15 H           5.7617    0.3361   14.7048 H       1  UNL1        0.0000
     16 H           9.1548   -1.1523   12.5150 H       1  UNL1        0.0000
@<TRIPOS>BOND
     1    13     2    1
     2     8     3    1
     3    14     3    1
     4     2     6    1
     5     2     1    1
     6     3     7    1
     7     3     1    1
     8    16     5    1
     9     1     5    1
    10     1     4    1
    11     5    12    1
    12     5    11    1
    13    10     4    1
    14     4    15    1
    15     4     9    1
