@<TRIPOS>MOLECULE
3
 10 10 0 0 0
SMALL
GASTEIGER

@<TRIPOS>ATOM
      1 C          -5.6262    4.1454   -2.1847 C.2     1  UNL1       -0.0837
      2 C          -4.7580    5.2089   -1.8725 C.3     1  UNL1       -0.0127
      3 C          -4.5530    5.9601   -3.0592 C.3     1  UNL1       -0.0235
      4 C          -5.2984    5.3440   -4.0932 C.3     1  UNL1       -0.0127
      5 C          -5.9680    4.2397   -3.5489 C.2     1  UNL1       -0.0837
      6 H          -6.0691    3.4666   -1.4671 H       1  UNL1        0.0572
      7 H          -4.4652    5.5074   -0.8739 H       1  UNL1        0.0352
      8 H          -4.1268    6.9542   -3.1066 H       1  UNL1        0.0315
      9 H          -5.4483    5.7342   -5.0886 H       1  UNL1        0.0352
     10 H          -6.6958    3.6322   -4.0665 H       1  UNL1        0.0572
@<TRIPOS>BOND
     1     9     4    1
     2     4     5    1
     3     4     3    1
     4    10     5    1
     5     5     1    2
     6     8     3    1
     7     3     2    1
     8     1     2    1
     9     1     6    1
    10     2     7    1
