@<TRIPOS>MOLECULE
5
 10 10 0 0 0
SMALL
GASTEIGER

@<TRIPOS>ATOM
      1 C          -1.1675    3.5560   -1.9694 C.2     1  UNL1       -0.0763
      2 C          -1.7328    4.7071   -1.3938 C.2     1  UNL1       -0.0654
      3 C          -1.6964    5.7366   -2.3516 C.2     1  UNL1       -0.0654
      4 C          -1.1406    5.2170   -3.5396 C.2     1  UNL1       -0.0763
      5 C          -0.8094    3.8593   -3.3035 C.3     1  UNL1        0.0054
      6 H          -0.9011    2.6536   -1.4343 H       1  UNL1        0.0578
      7 H          -1.9990    4.8184   -0.3514 H       1  UNL1        0.0615
      8 H          -1.9146    6.7783   -2.1607 H       1  UNL1        0.0615
      9 H          -0.8136    5.7985   -4.3888 H       1  UNL1        0.0578
     10 H          -0.2296    3.2236   -3.9612 H       1  UNL1        0.0394
@<TRIPOS>BOND
     1     9     4    1
     2    10     5    1
     3     4     5    1
     4     4     3    2
     5     5     1    1
     6     3     8    1
     7     3     2    1
     8     1     6    1
     9     1     2    2
    10     2     7    1
