@<TRIPOS>MOLECULE
3
 18 17 0 0 0
SMALL
GASTEIGER

@<TRIPOS>ATOM
      1 SI          1.8375    2.6752   -3.8087 Si      1  UNL1        0.0000
      2 N           2.2531    2.6732   -1.0522 N.3     1  UNL1        0.0000
      3 C           1.6352    2.6751   -0.0683 C.3     1  UNL1        0.0000
      4 C           2.9802    2.6746   -2.2309 C.3     1  UNL1        0.0000
      5 H           3.6244    1.7923   -2.2317 H       1  UNL1        0.0000
      6 C           0.7721    1.0994   -3.7572 C.3     1  UNL1        0.0000
      7 H           0.0974    1.0991   -2.9056 H       1  UNL1        0.0000
      8 H           1.3827    0.2032   -3.6886 H       1  UNL1        0.0000
      9 H           0.1623    1.0114   -4.6515 H       1  UNL1        0.0000
     10 C           3.0199    2.6761   -5.2980 C.3     1  UNL1        0.0000
     11 H           3.6610    3.5524   -5.3013 H       1  UNL1        0.0000
     12 H           2.4642    2.6765   -6.2302 H       1  UNL1        0.0000
     13 C           0.7717    4.2507   -3.7556 C.3     1  UNL1        0.0000
     14 H           0.0969    4.2499   -2.9042 H       1  UNL1        0.0000
     15 H           1.3822    5.1469   -3.6859 H       1  UNL1        0.0000
     16 H           0.1621    4.3396   -4.6499 H       1  UNL1        0.0000
     17 H           3.6611    1.7998   -5.3023 H       1  UNL1        0.0000
     18 H           3.6235    3.5574   -2.2301 H       1  UNL1        0.0000
@<TRIPOS>BOND
     1    12    10    1
     2    17    10    1
     3    11    10    1
     4    10     1    1
     5     9     6    1
     6    16    13    1
     7     1     6    1
     8     1    13    1
     9     1     4    1
    10     6     8    1
    11     6     7    1
    12    13    15    1
    13    13    14    1
    14     5     4    1
    15     4    18    1
    16     4     2    1
    17     2     3    1
