@<TRIPOS>MOLECULE
1
 6 5 0 0 0
SMALL
GASTEIGER

@<TRIPOS>ATOM
      1 C           6.6271    5.6831   -0.1376 C.2     1  UNL1        0.1947
      2 O           5.5212    6.1544   -0.2054 O.2     1  UNL1       -0.2893
      3 C           7.8789    6.4976   -0.4201 C.3     1  UNL1        0.0015
      4 H           7.6178    7.5528   -0.5159 H       1  UNL1        0.0310
      5 H           8.3256    6.1537   -1.3505 H       1  UNL1        0.0310
      6 H           8.6156    6.3614    0.3686 H       1  UNL1        0.0310
@<TRIPOS>BOND
     1     5     3    1
     2     4     3    1
     3     3     1    1
     4     3     6    1
     5     2     1    2
