@<TRIPOS>MOLECULE
1
 27 27 0 0 0
SMALL
GASTEIGER

@<TRIPOS>ATOM
      1 C           3.2633    6.1964   11.8372 C.1     1  UNL1        0.0000
      2 C           2.8283    6.4282   10.7272 C.1     1  UNL1        0.0000
      3 C           2.3044    6.6933    9.4423 C.ar    1  UNL1        0.0000
      4 C           2.2898    5.6971    8.4598 C.ar    1  UNL1        0.0000
      5 H           2.6904    4.7208    8.6963 H       1  UNL1        0.0000
      6 C           1.7764    5.9571    7.2089 C.ar    1  UNL1        0.0000
      7 H           1.7634    5.1866    6.4506 H       1  UNL1        0.0000
      8 C           1.2645    7.2218    6.9044 C.ar    1  UNL1        0.0000
      9 C           1.2871    8.2218    7.8812 C.ar    1  UNL1        0.0000
     10 H           0.8960    9.2011    7.6421 H       1  UNL1        0.0000
     11 C           1.8005    7.9612    9.1316 C.ar    1  UNL1        0.0000
     12 H           1.8227    8.7337    9.8880 H       1  UNL1        0.0000
     13 C           0.7301    7.4876    5.6248 C.1     1  UNL1        0.0000
     14 C           0.2680    7.7171    4.5292 C.1     1  UNL1        0.0000
     15 SI         -0.4386    8.0691    2.8549 Si      1  UNL1        0.0000
     16 C           0.5917    7.1416    1.5445 C.3     1  UNL1        0.0000
     17 H           1.6304    7.4574    1.5670 H       1  UNL1        0.0000
     18 H           0.2146    7.3196    0.5411 H       1  UNL1        0.0000
     19 H           0.5721    6.0698    1.7181 H       1  UNL1        0.0000
     20 C          -2.2490    7.4689    2.8069 C.3     1  UNL1        0.0000
     21 H          -2.3130    6.4021    2.9996 H       1  UNL1        0.0000
     22 H          -2.7061    7.6570    1.8393 H       1  UNL1        0.0000
     23 H          -2.8491    7.9730    3.5584 H       1  UNL1        0.0000
     24 C          -0.3640    9.9491    2.5403 C.3     1  UNL1        0.0000
     25 H          -0.9317   10.4940    3.2887 H       1  UNL1        0.0000
     26 H          -0.7704   10.2073    1.5663 H       1  UNL1        0.0000
     27 H           0.6587   10.3123    2.5774 H       1  UNL1        0.0000
@<TRIPOS>BOND
     1    18    16    1
     2    16    17    1
     3    16    19    1
     4    16    15    1
     5    26    24    1
     6    22    20    1
     7    24    27    1
     8    24    15    1
     9    24    25    1
    10    20    15    1
    11    20    21    1
    12    20    23    1
    13    15    14    1
    14    14    13    3
    15    13     8    1
    16     7     6    1
    17     8     6   ar
    18     8     9   ar
    19     6     4   ar
    20    10     9    1
    21     9    11   ar
    22     4     5    1
    23     4     3   ar
    24    11     3   ar
    25    11    12    1
    26     3     2    1
    27     2     1    3
