@<TRIPOS>MOLECULE
2
 16 15 0 0 0
SMALL
GASTEIGER

@<TRIPOS>ATOM
      1 SI          2.3525    9.4506   19.0451 Si      1  UNL1        0.0000
      2 C           3.9522    8.6247   18.4853 C.3     1  UNL1        0.0000
      3 H           3.8708    8.4677   17.4030 H       1  UNL1        0.0000
      4 H           3.9778    7.6187   18.9202 H       1  UNL1        0.0000
      5 C           2.6388   10.9104   20.2604 C.3     1  UNL1        0.0000
      6 H           3.6412   11.3246   20.1568 H       1  UNL1        0.0000
      7 H           2.5204   10.5928   21.2916 H       1  UNL1        0.0000
      8 H           1.9249   11.7122   20.0935 H       1  UNL1        0.0000
      9 C           1.3286   10.1547   17.5825 C.3     1  UNL1        0.0000
     10 H           1.8253   11.0049   17.1289 H       1  UNL1        0.0000
     11 H           0.3485   10.4873   17.9108 H       1  UNL1        0.0000
     12 H           1.1772    9.4084   16.8087 H       1  UNL1        0.0000
     13 C           1.1695    8.2297   19.9409 C.3     1  UNL1        0.0000
     14 H           0.8355    7.4437   19.2711 H       1  UNL1        0.0000
     15 H           0.2858    8.7343   20.3186 H       1  UNL1        0.0000
     16 H           1.6571    7.7509   20.7847 H       1  UNL1        0.0000
@<TRIPOS>BOND
     1    12     9    1
     2    10     9    1
     3     3     2    1
     4     9    11    1
     5     9     1    1
     6     2     4    1
     7     2     1    1
     8     1    13    1
     9     1     5    1
    10    14    13    1
    11    13    15    1
    12    13    16    1
    13     8     5    1
    14     6     5    1
    15     5     7    1
