@<TRIPOS>MOLECULE
2
 16 15 0 0 0
SMALL
GASTEIGER

@<TRIPOS>ATOM
      1 SI          6.5050   12.1940   21.8887 Si      1  UNL1        0.0000
      2 C           6.7055   11.7506   20.0631 C.3     1  UNL1        0.0000
      3 H           7.7613   11.9405   19.8248 H       1  UNL1        0.0000
      4 H           6.1490   12.5211   19.5118 H       1  UNL1        0.0000
      5 C           6.0655   14.0525   22.1026 C.3     1  UNL1        0.0000
      6 H           6.8442   14.6924   21.6990 H       1  UNL1        0.0000
      7 H           5.9310   14.3199   23.1464 H       1  UNL1        0.0000
      8 H           5.1431   14.2952   21.5828 H       1  UNL1        0.0000
      9 C           8.1238   11.9353   22.8843 C.3     1  UNL1        0.0000
     10 H           8.3925   10.8873   22.9616 H       1  UNL1        0.0000
     11 H           8.0240   12.3232   23.8938 H       1  UNL1        0.0000
     12 H           8.9581   12.4507   22.4197 H       1  UNL1        0.0000
     13 C           5.1268   11.2360   22.8158 C.3     1  UNL1        0.0000
     14 H           4.1911   11.7850   22.8031 H       1  UNL1        0.0000
     15 H           5.3921   11.0745   23.8569 H       1  UNL1        0.0000
     16 H           4.9472   10.2698   22.3589 H       1  UNL1        0.0000
@<TRIPOS>BOND
     1     4     2    1
     2     3     2    1
     3     2     1    1
     4     8     5    1
     5     6     5    1
     6     1     5    1
     7     1    13    1
     8     1     9    1
     9     5     7    1
    10    16    13    1
    11    12     9    1
    12    14    13    1
    13    13    15    1
    14     9    10    1
    15     9    11    1
