@<TRIPOS>MOLECULE
23
 50 52 0 0 0
SMALL
GASTEIGER

@<TRIPOS>ATOM
      1 F          11.4525    2.0508    4.4577 F       1  UNL1        0.0000
      2 F          12.7438    0.6812    2.5757 F       1  UNL1        0.0000
      3 F          11.7317    0.4947    0.0413 F       1  UNL1        0.0000
      4 F           9.3692    1.7694   -0.5473 F       1  UNL1        0.0000
      5 F           8.0726    3.1467    1.3247 F       1  UNL1        0.0000
      6 F           8.9818    5.1709    6.5353 F       1  UNL1        0.0000
      7 F           9.3775    4.3733    9.0291 F       1  UNL1        0.0000
      8 F           9.6943    1.7126    9.6207 F       1  UNL1        0.0000
      9 F           9.5851   -0.1182    7.5822 F       1  UNL1        0.0000
     10 F           9.2102    0.6667    5.0752 F       1  UNL1        0.0000
     11 F          11.4157    4.6673    3.6768 F       1  UNL1        0.0000
     12 F          11.9665    7.2402    3.3716 F       1  UNL1        0.0000
     13 F           9.9717    9.1206    3.4522 F       1  UNL1        0.0000
     14 F           7.3800    8.2736    3.8547 F       1  UNL1        0.0000
     15 F           6.7972    5.7423    4.1770 F       1  UNL1        0.0000
     16 C           4.2198    1.1898   -0.0530 C.3     1  UNL1        0.0000
     17 H           3.3710    0.7402   -0.5632 H       1  UNL1        0.0000
     18 H           4.7065    1.8789   -0.7410 H       1  UNL1        0.0000
     19 H           4.9282    0.4020    0.1937 H       1  UNL1        0.0000
     20 C           3.7635    1.9215    1.2133 C.3     1  UNL1        0.0000
     21 H           3.2311    1.2129    1.8519 H       1  UNL1        0.0000
     22 H           3.0595    2.7076    0.9238 H       1  UNL1        0.0000
     23 C           4.9433    2.5200    1.9719 C.3     1  UNL1        0.0000
     24 C           5.6884    1.5011    2.7487 C.2     1  UNL1        0.0000
     25 C           6.7156    1.7526    3.5712 C.2     1  UNL1        0.0000
     26 C           7.1780    3.1414    3.8959 C.3     1  UNL1        0.0000
     27 C           9.6680    2.6118    3.0021 C.ar    1  UNL1        0.0000
     28 C          10.8864    1.9813    3.2470 C.ar    1  UNL1        0.0000
     29 C          11.5841    1.2718    2.2746 C.ar    1  UNL1        0.0000
     30 C          11.0773    1.1776    0.9844 C.ar    1  UNL1        0.0000
     31 C           9.8819    1.8187    0.6905 C.ar    1  UNL1        0.0000
     32 C           9.2187    2.5159    1.6909 C.ar    1  UNL1        0.0000
     33 C           9.1246    2.9640    5.6609 C.ar    1  UNL1        0.0000
     34 C           9.1663    3.8479    6.7340 C.ar    1  UNL1        0.0000
     35 C           9.3610    3.4556    8.0543 C.ar    1  UNL1        0.0000
     36 C           9.5169    2.1109    8.3586 C.ar    1  UNL1        0.0000
     37 C           9.4652    1.1882    7.3218 C.ar    1  UNL1        0.0000
     38 C           9.2688    1.6241    6.0171 C.ar    1  UNL1        0.0000
     39 C           9.0909    5.0405    3.9236 C.ar    1  UNL1        0.0000
     40 C          10.3866    5.5194    3.7239 C.ar    1  UNL1        0.0000
     41 C          10.7004    6.8665    3.5665 C.ar    1  UNL1        0.0000
     42 C           9.6954    7.8254    3.6076 C.ar    1  UNL1        0.0000
     43 C           8.3928    7.3961    3.8126 C.ar    1  UNL1        0.0000
     44 C           8.1258    6.0412    3.9619 C.ar    1  UNL1        0.0000
     45 B           8.7959    3.4266    4.1223 B       1  UNL1        0.0000
     46 H           5.6222    2.9616    1.2183 H       1  UNL1        0.0000
     47 H           5.3728    0.4674    2.6290 H       1  UNL1        0.0000
     48 H           7.2238    0.9303    4.0532 H       1  UNL1        0.0000
     49 H           6.6842    3.4515    4.8345 H       1  UNL1        0.0000
     50 H           6.8311    3.8025    3.0697 H       1  UNL1        0.0000
@<TRIPOS>BOND
     1    18    16    1
     2    17    16    1
     3     4    31    1
     4    16    19    1
     5    16    20    1
     6     3    30    1
     7    31    30   ar
     8    31    32   ar
     9    22    20    1
    10    30    29   ar
    11    20    21    1
    12    20    23    1
    13    46    23    1
    14     5    32    1
    15    32    27   ar
    16    23    24    1
    17    29     2    1
    18    29    28   ar
    19    47    24    1
    20    24    25    2
    21    27    28   ar
    22    27    45    1
    23    50    26    1
    24    28     1    1
    25    12    41    1
    26    13    42    1
    27    41    42   ar
    28    41    40   ar
    29    25    26    1
    30    25    48    1
    31    42    43   ar
    32    11    40    1
    33    40    39   ar
    34    43    14    1
    35    43    44   ar
    36    26    45    1
    37    26    49    1
    38    39    44   ar
    39    39    45    1
    40    44    15    1
    41    45    33    1
    42    10    38    1
    43    33    38   ar
    44    33    34   ar
    45    38    37   ar
    46     6    34    1
    47    34    35   ar
    48    37     9    1
    49    37    36   ar
    50    35    36   ar
    51    35     7    1
    52    36     8    1
