@<TRIPOS>MOLECULE
2
 27 27 0 0 0
SMALL
GASTEIGER

@<TRIPOS>ATOM
      1 SI         -5.5419   -3.0913   15.0480 Si      1  UNL1        0.0000
      2 C           0.6621    0.4889    8.2198 C.1     1  UNL1        0.0000
      3 C          -0.1039    0.0665    9.0646 C.1     1  UNL1        0.0000
      4 C          -0.9841   -0.4484   10.0420 C.ar    1  UNL1        0.0000
      5 C          -1.0841    0.1554   11.3009 C.ar    1  UNL1        0.0000
      6 C          -1.9429   -0.3488   12.2510 C.ar    1  UNL1        0.0000
      7 C          -2.7286   -1.4708   11.9704 C.ar    1  UNL1        0.0000
      8 C          -2.6319   -2.0750   10.7133 C.ar    1  UNL1        0.0000
      9 C          -1.7730   -1.5708    9.7631 C.ar    1  UNL1        0.0000
     10 C          -3.6127   -1.9850   12.9435 C.1     1  UNL1        0.0000
     11 C          -4.3724   -2.4242   13.7779 C.1     1  UNL1        0.0000
     12 C          -6.0565   -4.8567   14.5416 C.3     1  UNL1        0.0000
     13 C          -4.6610   -3.1220   16.7399 C.3     1  UNL1        0.0000
     14 C          -7.0756   -1.9597   15.1298 C.3     1  UNL1        0.0000
     15 H          -0.4748    1.0227   11.5163 H       1  UNL1        0.0000
     16 H          -2.0190    0.1184   13.2233 H       1  UNL1        0.0000
     17 H          -3.2410   -2.9416   10.4962 H       1  UNL1        0.0000
     18 H          -1.7016   -2.0357    8.7886 H       1  UNL1        0.0000
     19 H          -6.5503   -4.8581   13.5744 H       1  UNL1        0.0000
     20 H          -5.1932   -5.5114   14.4690 H       1  UNL1        0.0000
     21 H          -6.7422   -5.2942   15.2619 H       1  UNL1        0.0000
     22 H          -5.3115   -3.5051   17.5211 H       1  UNL1        0.0000
     23 H          -3.7762   -3.7509   16.7102 H       1  UNL1        0.0000
     24 H          -4.3442   -2.1259   17.0345 H       1  UNL1        0.0000
     25 H          -7.7917   -2.3112   15.8675 H       1  UNL1        0.0000
     26 H          -7.5837   -1.9187   14.1709 H       1  UNL1        0.0000
     27 H          -6.7995   -0.9440   15.3968 H       1  UNL1        0.0000
@<TRIPOS>BOND
     1     2     3    3
     2    18     9    1
     3     3     4    1
     4     9     4   ar
     5     9     8   ar
     6     4     5   ar
     7    17     8    1
     8     8     7   ar
     9     5    15    1
    10     5     6   ar
    11     7     6   ar
    12     7    10    1
    13     6    16    1
    14    10    11    3
    15    19    12    1
    16    11     1    1
    17    26    14    1
    18    20    12    1
    19    12     1    1
    20    12    21    1
    21     1    14    1
    22     1    13    1
    23    14    27    1
    24    14    25    1
    25    23    13    1
    26    13    24    1
    27    13    22    1
