@<TRIPOS>MOLECULE
2
 27 27 0 0 0
SMALL
GASTEIGER

@<TRIPOS>ATOM
      1 SI          9.4116    5.3834   -1.4817 Si      1  UNL1        0.0000
      2 C           3.2072    1.8028    5.3459 C.1     1  UNL1        0.0000
      3 C           3.9731    2.2243    4.5005 C.1     1  UNL1        0.0000
      4 C           4.8531    2.7392    3.5230 C.ar    1  UNL1        0.0000
      5 C           4.9530    2.1355    2.2640 C.ar    1  UNL1        0.0000
      6 C           5.8118    2.6396    1.3139 C.ar    1  UNL1        0.0000
      7 C           6.5978    3.7613    1.5946 C.ar    1  UNL1        0.0000
      8 C           6.5014    4.3653    2.8518 C.ar    1  UNL1        0.0000
      9 C           5.6424    3.8613    3.8020 C.ar    1  UNL1        0.0000
     10 C           7.4824    4.2753    0.6219 C.1     1  UNL1        0.0000
     11 C           8.2422    4.7160   -0.2117 C.1     1  UNL1        0.0000
     12 C           9.9263    7.1488   -0.9751 C.3     1  UNL1        0.0000
     13 C           8.5311    5.4142   -3.1737 C.3     1  UNL1        0.0000
     14 C          10.9453    4.2517   -1.5633 C.3     1  UNL1        0.0000
     15 H           4.3435    1.2683    2.0486 H       1  UNL1        0.0000
     16 H           5.8877    2.1724    0.3416 H       1  UNL1        0.0000
     17 H           7.1107    5.2317    3.0690 H       1  UNL1        0.0000
     18 H           5.5712    4.3260    4.7766 H       1  UNL1        0.0000
     19 H          10.4201    7.1502   -0.0079 H       1  UNL1        0.0000
     20 H           9.0630    7.8035   -0.9025 H       1  UNL1        0.0000
     21 H          10.6119    7.5863   -1.6954 H       1  UNL1        0.0000
     22 H           9.1816    5.7980   -3.9546 H       1  UNL1        0.0000
     23 H           7.6458    6.0424   -3.1440 H       1  UNL1        0.0000
     24 H           8.2152    4.4180   -3.4687 H       1  UNL1        0.0000
     25 H          11.6618    4.6035   -2.3003 H       1  UNL1        0.0000
     26 H          11.4529    4.2099   -0.6041 H       1  UNL1        0.0000
     27 H          10.6691    3.2362   -1.8310 H       1  UNL1        0.0000
@<TRIPOS>BOND
     1    22    13    1
     2    24    13    1
     3    13    23    1
     4    13     1    1
     5    25    14    1
     6    27    14    1
     7    21    12    1
     8    14     1    1
     9    14    26    1
    10     1    12    1
    11     1    11    1
    12    12    20    1
    13    12    19    1
    14    11    10    3
    15    16     6    1
    16    10     7    1
    17     6     7   ar
    18     6     5   ar
    19     7     8   ar
    20    15     5    1
    21     5     4   ar
    22     8    17    1
    23     8     9   ar
    24     4     9   ar
    25     4     3    1
    26     9    18    1
    27     3     2    3
