@<TRIPOS>MOLECULE
1
 4 3 0 0 0
SMALL
GASTEIGER

@<TRIPOS>ATOM
      1 C           0.1206    5.0209   -0.8769 C.3     1  UNL1       -0.0681
      2 H           0.0828    6.1113   -0.7342 H       1  UNL1        0.0227
      3 H          -0.9132    4.6942   -1.0772 H       1  UNL1        0.0227
      4 H           0.6949    4.8548   -1.8003 H       1  UNL1        0.0227
@<TRIPOS>BOND
     1     4     1    1
     2     3     1    1
     3     1     2    1
