@<TRIPOS>MOLECULE
1
 4 3 0 0 0
SMALL
GASTEIGER

@<TRIPOS>ATOM
      1 C           2.9695    4.9028    0.5146 C.3     1  UNL1       -0.0681
      2 H           3.3861    4.6565   -0.4730 H       1  UNL1        0.0227
      3 H           3.7096    4.5804    1.2676 H       1  UNL1        0.0227
      4 H           2.9263    6.0026    0.5621 H       1  UNL1        0.0227
@<TRIPOS>BOND
     1     2     1    1
     2     1     4    1
     3     1     3    1
