@<TRIPOS>MOLECULE
1
 4 3 0 0 0
SMALL
GASTEIGER

@<TRIPOS>ATOM
      1 C           1.7949    3.8456    7.2693 C.3     1  UNL1       -0.0681
      2 H           2.2803    4.2863    6.3867 H       1  UNL1        0.0227
      3 H           2.3489    2.9234    7.5155 H       1  UNL1        0.0227
      4 H           1.9694    4.5538    8.0931 H       1  UNL1        0.0227
@<TRIPOS>BOND
     1     2     1    1
     2     1     3    1
     3     1     4    1
