@<TRIPOS>MOLECULE
1
 4 3 0 0 0
SMALL
GASTEIGER

@<TRIPOS>ATOM
      1 C          -0.7539    5.5920    6.5946 C.3     1  UNL1       -0.0681
      2 H          -0.5606    6.2053    7.4876 H       1  UNL1        0.0227
      3 H          -1.8067    5.7665    6.3158 H       1  UNL1        0.0227
      4 H          -0.1331    6.0176    5.7926 H       1  UNL1        0.0227
@<TRIPOS>BOND
     1     4     1    1
     2     3     1    1
     3     1     2    1
