@<TRIPOS>MOLECULE
1
 15 14 0 0 0
SMALL
GASTEIGER

@<TRIPOS>ATOM
      1 C           2.9564    2.1956   13.8732 C.1     1  UNL1        0.0000
      2 C           2.9687    2.4200   12.6762 C.1     1  UNL1        0.0000
      3 SI          3.1498    2.8546   10.8941 Si      1  UNL1        0.0000
      4 C           4.9594    2.5147   10.3777 C.3     1  UNL1        0.0000
      5 H           5.1894    1.4549   10.4422 H       1  UNL1        0.0000
      6 H           5.6517    3.0400   11.0302 H       1  UNL1        0.0000
      7 H           5.1585    2.8330    9.3581 H       1  UNL1        0.0000
      8 C           2.7675    4.7075   10.6244 C.3     1  UNL1        0.0000
      9 H           1.7919    4.9684   11.0231 H       1  UNL1        0.0000
     10 H           2.7736    4.9686    9.5696 H       1  UNL1        0.0000
     11 H           3.4998    5.3337   11.1239 H       1  UNL1        0.0000
     12 C           1.9858    1.8347    9.7740 C.3     1  UNL1        0.0000
     13 H           0.9434    2.0097   10.0238 H       1  UNL1        0.0000
     14 H           2.1741    0.7711    9.8796 H       1  UNL1        0.0000
     15 H           2.1191    2.0912    8.7260 H       1  UNL1        0.0000
@<TRIPOS>BOND
     1    15    12    1
     2     7     4    1
     3    10     8    1
     4    12    14    1
     5    12    13    1
     6    12     3    1
     7     4     5    1
     8     4     3    1
     9     4     6    1
    10     8     3    1
    11     8     9    1
    12     8    11    1
    13     3     2    1
    14     2     1    3
