@<TRIPOS>MOLECULE
1
 16 15 0 0 0
SMALL
GASTEIGER

@<TRIPOS>ATOM
      1 C           3.4195    3.2381   16.5646 C.3     1  UNL1        0.0000
      2 C           3.5368    4.4284   17.0732 C.3     1  UNL1        0.0000
      3 H           3.7379    4.5708   18.1286 H       1  UNL1        0.0000
      4 SI          3.3896    6.0563   16.1080 Si      1  UNL1        0.0000
      5 C           2.1063    7.1398   17.0245 C.3     1  UNL1        0.0000
      6 H           1.1257    6.6737   17.0086 H       1  UNL1        0.0000
      7 H           2.0158    8.1173   16.5609 H       1  UNL1        0.0000
      8 H           2.3812    7.2962   18.0632 H       1  UNL1        0.0000
      9 C           2.8468    5.7777   14.3076 C.3     1  UNL1        0.0000
     10 H           1.9438    6.3328   14.0741 H       1  UNL1        0.0000
     11 H           2.6413    4.7257   14.1333 H       1  UNL1        0.0000
     12 H           3.6134    6.0843   13.6038 H       1  UNL1        0.0000
     13 C           5.0939    6.9271   16.1869 C.3     1  UNL1        0.0000
     14 H           5.8791    6.2884   15.7936 H       1  UNL1        0.0000
     15 H           5.3614    7.1845   17.2073 H       1  UNL1        0.0000
     16 H           5.0929    7.8470   15.6100 H       1  UNL1        0.0000
@<TRIPOS>BOND
     1    12     9    1
     2    10     9    1
     3    11     9    1
     4     9     4    1
     5    16    13    1
     6    14    13    1
     7     4    13    1
     8     4     5    1
     9     4     2    1
    10    13    15    1
    11     7     5    1
    12     1     2    1
    13     6     5    1
    14     5     8    1
    15     2     3    1
