@<TRIPOS>MOLECULE
2
 16 15 0 0 0
SMALL
GASTEIGER

@<TRIPOS>ATOM
      1 SI          7.6708    6.8928   10.9862 Si      1  UNL1        0.0000
      2 C           7.4228    5.0583   10.6296 C.3     1  UNL1        0.0000
      3 C           6.8409    8.0417    9.6900 C.3     1  UNL1        0.0000
      4 C           9.5126    7.4339   10.9422 C.3     1  UNL1        0.0000
      5 C           6.9973    7.4076   12.7136 C.3     1  UNL1        0.0000
      6 H           8.4209    4.5929   10.6463 H       1  UNL1        0.0000
      7 H           7.1119    4.9752    9.5774 H       1  UNL1        0.0000
      8 H           5.7579    7.9674    9.6847 H       1  UNL1        0.0000
      9 H           7.1899    7.8097    8.6876 H       1  UNL1        0.0000
     10 H           7.0916    9.0803    9.8866 H       1  UNL1        0.0000
     11 H           9.9839    7.1413   10.0084 H       1  UNL1        0.0000
     12 H          10.0936    6.9978   11.7499 H       1  UNL1        0.0000
     13 H           9.6021    8.5129   11.0284 H       1  UNL1        0.0000
     14 H           6.4223    6.6079   13.1719 H       1  UNL1        0.0000
     15 H           6.3546    8.2816   12.6495 H       1  UNL1        0.0000
     16 H           7.8077    7.6586   13.3919 H       1  UNL1        0.0000
@<TRIPOS>BOND
     1     9     3    1
     2     7     2    1
     3     8     3    1
     4     3    10    1
     5     3     1    1
     6    11     4    1
     7     2     6    1
     8     2     1    1
     9     4     1    1
    10     4    13    1
    11     4    12    1
    12     1     5    1
    13    15     5    1
    14     5    14    1
    15     5    16    1
