@<TRIPOS>MOLECULE
2
 19 19 0 0 0
SMALL
GASTEIGER

@<TRIPOS>ATOM
      1 N           9.4896   15.2783    7.4745 N.pl3   1  UNL1       -0.2365
      2 C           8.9889   14.7004    6.5765 C.3     1  UNL1        0.1354
      3 C          10.2047   16.1986    8.1732 C.ar    1  UNL1        0.0544
      4 C          10.3394   17.5058    7.6792 C.ar    1  UNL1       -0.0276
      5 C          11.0605   18.4113    8.4441 C.ar    1  UNL1       -0.0570
      6 H          11.1729   19.4230    8.0852 H       1  UNL1        0.0621
      7 C          11.6345   18.0372    9.6465 C.ar    1  UNL1       -0.0611
      8 H          12.1934   18.7587   10.2213 H       1  UNL1        0.0618
      9 C          11.4937   16.7410   10.1164 C.ar    1  UNL1       -0.0570
     10 H          11.9427   16.4566   11.0553 H       1  UNL1        0.0621
     11 C          10.7736   15.8052    9.3950 C.ar    1  UNL1       -0.0276
     12 C           9.7107   17.9388    6.3901 C.3     1  UNL1       -0.0379
     13 H          10.4212   18.5192    5.8050 H       1  UNL1        0.0278
     14 H           8.8550   18.5813    6.5985 H       1  UNL1        0.0278
     15 H           9.3720   17.0906    5.7946 H       1  UNL1        0.0278
     16 C          10.5980   14.3978    9.8695 C.3     1  UNL1       -0.0379
     17 H           9.5386   14.1622    9.9666 H       1  UNL1        0.0278
     18 H          11.0784   14.2544   10.8327 H       1  UNL1        0.0278
     19 H          11.0324   13.6985    9.1548 H       1  UNL1        0.0278
@<TRIPOS>BOND
     1    15    12    1
     2    13    12    1
     3    12    14    1
     4    12     4    1
     5     2     1    1
     6     1     3    1
     7     4     3   ar
     8     4     5   ar
     9     6     5    1
    10     3    11   ar
    11     5     7   ar
    12    19    16    1
    13    11    16    1
    14    11     9   ar
    15     7     9   ar
    16     7     8    1
    17    16    17    1
    18    16    18    1
    19     9    10    1
