@<TRIPOS>MOLECULE
2
 19 19 0 0 0
SMALL
GASTEIGER

@<TRIPOS>ATOM
      1 N          10.0912   15.6511    3.3854 N.pl3   1  UNL1       -0.2365
      2 C           9.3478   14.9601    3.9874 C.3     1  UNL1        0.1354
      3 C          11.1248   16.4913    3.1135 C.ar    1  UNL1        0.0544
      4 C          11.0304   17.3042    1.9721 C.ar    1  UNL1       -0.0276
      5 C          12.0843   18.1508    1.6781 C.ar    1  UNL1       -0.0570
      6 H          12.0278   18.7870    0.8085 H       1  UNL1        0.0621
      7 C          13.2108   18.1800    2.4852 C.ar    1  UNL1       -0.0611
      8 H          14.0285   18.8399    2.2416 H       1  UNL1        0.0618
      9 C          13.2930   17.3648    3.5998 C.ar    1  UNL1       -0.0570
     10 H          14.1744   17.3902    4.2224 H       1  UNL1        0.0621
     11 C          12.2565   16.5083    3.9437 C.ar    1  UNL1       -0.0276
     12 C           9.8005   17.2418    1.1235 C.3     1  UNL1       -0.0379
     13 H           9.8925   17.9001    0.2650 H       1  UNL1        0.0278
     14 H           8.9252   17.5412    1.7001 H       1  UNL1        0.0278
     15 H           9.6368   16.2242    0.7706 H       1  UNL1        0.0278
     16 C          12.3784   15.6354    5.1549 C.3     1  UNL1       -0.0379
     17 H          12.4918   16.2524    6.0453 H       1  UNL1        0.0278
     18 H          13.2692   15.0144    5.0718 H       1  UNL1        0.0278
     19 H          11.5086   14.9910    5.2882 H       1  UNL1        0.0278
@<TRIPOS>BOND
     1    13    12    1
     2    15    12    1
     3     6     5    1
     4    12    14    1
     5    12     4    1
     6     5     4   ar
     7     5     7   ar
     8     4     3   ar
     9     8     7    1
    10     7     9   ar
    11     3     1    1
    12     3    11   ar
    13     1     2    1
    14     9    11   ar
    15     9    10    1
    16    11    16    1
    17    18    16    1
    18    16    19    1
    19    16    17    1
