@<TRIPOS>MOLECULE
1
 4 3 0 0 0
SMALL
GASTEIGER

@<TRIPOS>ATOM
      1 C           8.2861    2.7478    6.6976 C.3     1  UNL1       -0.0681
      2 H           9.2442    3.2473    6.8642 H       1  UNL1        0.0227
      3 H           8.3631    1.7506    7.1511 H       1  UNL1        0.0227
      4 H           7.5377    3.3020    7.2710 H       1  UNL1        0.0227
@<TRIPOS>BOND
     1     1     2    1
     2     1     3    1
     3     1     4    1
