@<TRIPOS>MOLECULE
1
 4 3 0 0 0
SMALL
GASTEIGER

@<TRIPOS>ATOM
      1 C           7.7957    4.7914    4.5590 C.3     1  UNL1       -0.0681
      2 H           8.3009    5.2948    5.3864 H       1  UNL1        0.0227
      3 H           6.7691    5.1629    4.5246 H       1  UNL1        0.0227
      4 H           8.2945    5.0773    3.6275 H       1  UNL1        0.0227
@<TRIPOS>BOND
     1     4     1    1
     2     3     1    1
     3     1     2    1
