@<TRIPOS>MOLECULE
2
 16 15 0 0 0
SMALL
GASTEIGER

@<TRIPOS>ATOM
      1 SI          8.9075   16.4539    1.1402 Si      1  UNL1        0.0000
      2 C           7.3091   16.6554    2.1176 C.3     1  UNL1        0.0000
      3 H           6.6415   15.8503    1.7695 H       1  UNL1        0.0000
      4 H           6.8342   17.5756    1.7349 H       1  UNL1        0.0000
      5 C           9.8938   18.0914    1.0534 C.3     1  UNL1        0.0000
      6 H           9.3231   18.8696    0.5560 H       1  UNL1        0.0000
      7 H          10.8227   17.9666    0.5054 H       1  UNL1        0.0000
      8 H          10.1450   18.4519    2.0459 H       1  UNL1        0.0000
      9 C           8.6371   15.8867   -0.6787 C.3     1  UNL1        0.0000
     10 H           8.0946   14.9460   -0.7154 H       1  UNL1        0.0000
     11 H           9.5752   15.7437   -1.2070 H       1  UNL1        0.0000
     12 H           8.0562   16.6165   -1.2350 H       1  UNL1        0.0000
     13 C          10.0366   15.1259    1.9417 C.3     1  UNL1        0.0000
     14 H          10.1988   15.3385    2.9958 H       1  UNL1        0.0000
     15 H          11.0082   15.0900    1.4581 H       1  UNL1        0.0000
     16 H           9.6007   14.1340    1.8673 H       1  UNL1        0.0000
@<TRIPOS>BOND
     1    12     9    1
     2    11     9    1
     3    10     9    1
     4     9     1    1
     5     7     5    1
     6     6     5    1
     7     5     1    1
     8     5     8    1
     9     1    13    1
    10     1     2    1
    11    15    13    1
    12     4     2    1
    13     3     2    1
    14    16    13    1
    15    13    14    1
