@<TRIPOS>MOLECULE
2
 16 15 0 0 0
SMALL
GASTEIGER

@<TRIPOS>ATOM
      1 SI          6.8264   20.3116    5.1468 Si      1  UNL1        0.0000
      2 C           6.3556   18.5262    5.5132 C.3     1  UNL1        0.0000
      3 H           5.2536   18.4704    5.5219 H       1  UNL1        0.0000
      4 H           6.6577   18.3249    6.5565 H       1  UNL1        0.0000
      5 C           8.3168   20.8764    6.2059 C.3     1  UNL1        0.0000
      6 H           8.0638   20.9051    7.2615 H       1  UNL1        0.0000
      7 H           8.6535   21.8693    5.9238 H       1  UNL1        0.0000
      8 H           9.1555   20.1983    6.0899 H       1  UNL1        0.0000
      9 C           7.3106   20.5222    3.3000 C.3     1  UNL1        0.0000
     10 H           7.9328   19.6933    2.9618 H       1  UNL1        0.0000
     11 H           7.8670   21.4405    3.1376 H       1  UNL1        0.0000
     12 H           6.4347   20.5588    2.6582 H       1  UNL1        0.0000
     13 C           5.4176   21.5791    5.4791 C.3     1  UNL1        0.0000
     14 H           4.5290   21.3370    4.9029 H       1  UNL1        0.0000
     15 H           5.7130   22.5888    5.2103 H       1  UNL1        0.0000
     16 H           5.1336   21.5896    6.5274 H       1  UNL1        0.0000
@<TRIPOS>BOND
     1    12     9    1
     2    10     9    1
     3    11     9    1
     4     9     1    1
     5    14    13    1
     6     1    13    1
     7     1     2    1
     8     1     5    1
     9    15    13    1
    10    13    16    1
    11     2     3    1
    12     2     4    1
    13     7     5    1
    14     8     5    1
    15     5     6    1
