@<TRIPOS>MOLECULE
2
 16 15 0 0 0
SMALL
GASTEIGER

@<TRIPOS>ATOM
      1 SI         10.2068   16.5142    6.3294 Si      1  UNL1        0.0000
      2 C           8.7527   15.5113    5.6892 C.3     1  UNL1        0.0000
      3 H           8.2437   15.1037    6.5756 H       1  UNL1        0.0000
      4 H           9.1420   14.6359    5.1440 H       1  UNL1        0.0000
      5 C          10.7148   17.8182    5.0160 C.3     1  UNL1        0.0000
      6 H          11.2880   17.3656    4.2125 H       1  UNL1        0.0000
      7 H          11.3251   18.6090    5.4421 H       1  UNL1        0.0000
      8 H           9.8269   18.2794    4.5728 H       1  UNL1        0.0000
      9 C          11.7997   15.5304    6.7616 C.3     1  UNL1        0.0000
     10 H          11.6242   14.8284    7.5716 H       1  UNL1        0.0000
     11 H          12.6113   16.1849    7.0656 H       1  UNL1        0.0000
     12 H          12.1453   14.9596    5.9047 H       1  UNL1        0.0000
     13 C           9.6813   17.4396    7.9219 C.3     1  UNL1        0.0000
     14 H           8.8242   18.0775    7.7296 H       1  UNL1        0.0000
     15 H          10.4793   18.0661    8.3071 H       1  UNL1        0.0000
     16 H           9.4012   16.7424    8.7058 H       1  UNL1        0.0000
@<TRIPOS>BOND
     1     6     5    1
     2     8     5    1
     3     5     7    1
     4     5     1    1
     5     4     2    1
     6     2     1    1
     7     2     3    1
     8    12     9    1
     9     1     9    1
    10     1    13    1
    11     9    11    1
    12     9    10    1
    13    14    13    1
    14    13    15    1
    15    13    16    1
