@<TRIPOS>MOLECULE
1
 65 67 0 0 0
SMALL
GASTEIGER

@<TRIPOS>ATOM
      1 C           5.1690   15.2813    5.1200 C.3     1  UNL1        0.1959
      2 N           4.6909   14.9584    6.3483 N.pl3   1  UNL1       -0.2762
      3 N           4.1483   14.9662    4.2844 N.pl3   1  UNL1       -0.2762
      4 C           6.3246   13.9928    7.8672 C.ar    1  UNL1       -0.0231
      5 C           4.1840   15.0422    2.8639 C.ar    1  UNL1        0.0424
      6 C           5.4108   15.0165    7.5780 C.ar    1  UNL1        0.0424
      7 C           4.7200   13.9638    2.1517 C.ar    1  UNL1       -0.0231
      8 C           3.4152   14.4606    6.2738 C.2     1  UNL1        0.0131
      9 H           2.8710   14.1426    7.1388 H       1  UNL1        0.0797
     10 C           5.1361   16.0399    8.4895 C.ar    1  UNL1       -0.0231
     11 C           4.7370   14.0417    0.7659 C.ar    1  UNL1       -0.0565
     12 H           5.1635   13.2364    0.1896 H       1  UNL1        0.0621
     13 C           5.8252   16.0416    9.6960 C.ar    1  UNL1       -0.0565
     14 H           5.6365   16.8200   10.4174 H       1  UNL1        0.0621
     15 C           3.6728   16.1877    0.8327 C.ar    1  UNL1       -0.0565
     16 H           3.2683   17.0390    0.3084 H       1  UNL1        0.0621
     17 C           3.6452   16.1584    2.2210 C.ar    1  UNL1       -0.0231
     18 C           3.0696   14.4662    4.9673 C.2     1  UNL1        0.0131
     19 H           2.1711   14.1603    4.4725 H       1  UNL1        0.0797
     20 C           4.0756   17.0847    8.2226 C.3     1  UNL1       -0.0197
     21 H           3.8708   17.1118    7.1472 H       1  UNL1        0.0344
     22 C           4.2198   15.1441    0.1124 C.ar    1  UNL1       -0.0611
     23 H           4.2460   15.1896   -0.9657 H       1  UNL1        0.0618
     24 C           2.7858   16.7061    8.9612 C.3     1  UNL1       -0.0586
     25 H           2.4076   15.7393    8.6392 H       1  UNL1        0.0235
     26 H           2.0173   17.4528    8.7747 H       1  UNL1        0.0235
     27 H           2.9675   16.6581   10.0326 H       1  UNL1        0.0235
     28 C           5.2982   12.7622    2.8633 C.3     1  UNL1       -0.0197
     29 H           4.9798   12.7795    3.9104 H       1  UNL1        0.0344
     30 C           4.5059   18.4887    8.6518 C.3     1  UNL1       -0.0586
     31 H           4.5112   18.5864    9.7344 H       1  UNL1        0.0235
     32 H           3.8081   19.2214    8.2528 H       1  UNL1        0.0235
     33 H           5.4965   18.7233    8.2740 H       1  UNL1        0.0235
     34 C           6.9832   14.0345    9.0877 C.ar    1  UNL1       -0.0565
     35 H           7.6912   13.2637    9.3425 H       1  UNL1        0.0621
     36 C           6.7454   15.0557    9.9883 C.ar    1  UNL1       -0.0611
     37 H           7.2733   15.0742   10.9299 H       1  UNL1        0.0618
     38 C           6.5332   12.8441    6.9021 C.3     1  UNL1       -0.0197
     39 H           6.4563   13.2382    5.8821 H       1  UNL1        0.0344
     40 C           5.4364   11.7922    7.1135 C.3     1  UNL1       -0.0586
     41 H           5.4692   11.4173    8.1346 H       1  UNL1        0.0235
     42 H           5.5878   10.9555    6.4349 H       1  UNL1        0.0235
     43 H           4.4462   12.2036    6.9320 H       1  UNL1        0.0235
     44 C           3.0397   17.3047    2.9964 C.3     1  UNL1       -0.0197
     45 H           3.1390   17.1056    4.0687 H       1  UNL1        0.0344
     46 C           7.9024   12.1769    7.0304 C.3     1  UNL1       -0.0586
     47 H           7.9757   11.5965    7.9472 H       1  UNL1        0.0235
     48 H           8.6978   12.9165    7.0126 H       1  UNL1        0.0235
     49 H           8.0510   11.4964    6.1947 H       1  UNL1        0.0235
     50 C           4.8003   11.4467    2.2601 C.3     1  UNL1       -0.0586
     51 H           5.2016   11.2911    1.2627 H       1  UNL1        0.0235
     52 H           3.7137   11.4382    2.2006 H       1  UNL1        0.0235
     53 H           5.1174   10.6129    2.8830 H       1  UNL1        0.0235
     54 C           6.8279   12.8322    2.8283 C.3     1  UNL1       -0.0586
     55 H           7.2539   11.9751    3.3455 H       1  UNL1        0.0235
     56 H           7.1831   13.7509    3.3092 H       1  UNL1        0.0235
     57 H           7.1825   12.8282    1.8006 H       1  UNL1        0.0235
     58 C           3.7843   18.6076    2.7007 C.3     1  UNL1       -0.0586
     59 H           4.8428   18.4947    2.9441 H       1  UNL1        0.0235
     60 H           3.3767   19.4146    3.3050 H       1  UNL1        0.0235
     61 H           3.6905   18.8827    1.6534 H       1  UNL1        0.0235
     62 C           1.5480   17.4382    2.6762 C.3     1  UNL1       -0.0586
     63 H           1.3967   17.6793    1.6274 H       1  UNL1        0.0235
     64 H           1.1077   18.2311    3.2762 H       1  UNL1        0.0235
     65 H           1.0224   16.5100    2.8925 H       1  UNL1        0.0235
@<TRIPOS>BOND
     1    23    22    1
     2    22    11   ar
     3    22    15   ar
     4    12    11    1
     5    16    15    1
     6    11     7   ar
     7    15    17   ar
     8    51    50    1
     9    63    62    1
    10    61    58    1
    11    57    54    1
    12     7    28    1
    13     7     5   ar
    14    52    50    1
    15    17     5   ar
    16    17    44    1
    17    50    28    1
    18    50    53    1
    19    62    65    1
    20    62    44    1
    21    62    64    1
    22    58    59    1
    23    58    44    1
    24    58    60    1
    25    54    28    1
    26    54    56    1
    27    54    55    1
    28    28    29    1
    29     5     3    1
    30    44    45    1
    31     3    18    1
    32     3     1    1
    33    19    18    1
    34    18     8    2
    35     1     2    1
    36    39    38    1
    37    49    46    1
    38     8     2    1
    39     8     9    1
    40     2     6    1
    41    42    40    1
    42    38    46    1
    43    38    40    1
    44    38     4    1
    45    43    40    1
    46    48    46    1
    47    46    47    1
    48    40    41    1
    49    21    20    1
    50     6     4   ar
    51     6    10   ar
    52     4    34   ar
    53    20    10    1
    54    20    30    1
    55    20    24    1
    56    32    30    1
    57    33    30    1
    58    10    13   ar
    59    25    24    1
    60    30    31    1
    61    26    24    1
    62    24    27    1
    63    34    35    1
    64    34    36   ar
    65    13    36   ar
    66    13    14    1
    67    36    37    1
