@<TRIPOS>MOLECULE
1
 41 43 0 0 0
SMALL
GASTEIGER

@<TRIPOS>ATOM
      1 C           0.2784   11.1967    3.4269 C.3     1  UNL1        0.1959
      2 C          -1.3394   11.2442    4.9962 C.2     1  UNL1        0.0131
      3 H          -1.7606   11.1228    5.9732 H       1  UNL1        0.0797
      4 C          -1.8867   11.6766    3.8376 C.2     1  UNL1        0.0131
      5 H          -2.8817   11.9957    3.6038 H       1  UNL1        0.0797
      6 C          -1.1147   11.9389    1.5248 C.ar    1  UNL1        0.0414
      7 C          -1.1342   13.2682    1.1035 C.ar    1  UNL1       -0.0288
      8 C          -1.3640   13.5267   -0.2413 C.ar    1  UNL1       -0.0571
      9 H          -1.3706   14.5493   -0.5880 H       1  UNL1        0.0621
     10 C          -1.5839   12.4938   -1.1332 C.ar    1  UNL1       -0.0611
     11 H          -1.7523   12.7110   -2.1768 H       1  UNL1        0.0618
     12 C          -1.5991   11.1835   -0.6912 C.ar    1  UNL1       -0.0571
     13 H          -1.7863   10.3811   -1.3886 H       1  UNL1        0.0621
     14 C          -1.3682   10.8846    0.6439 C.ar    1  UNL1       -0.0288
     15 C          -0.9431   14.3840    2.0838 C.3     1  UNL1       -0.0379
     16 H          -0.0875   14.1884    2.7274 H       1  UNL1        0.0278
     17 H          -1.8261   14.4907    2.7153 H       1  UNL1        0.0278
     18 H          -0.7808   15.3237    1.5641 H       1  UNL1        0.0278
     19 C          -1.3945    9.4699    1.1403 C.3     1  UNL1       -0.0379
     20 H          -1.6548    8.7894    0.3346 H       1  UNL1        0.0278
     21 H          -2.1241    9.3554    1.9426 H       1  UNL1        0.0278
     22 H          -0.4147    9.1880    1.5299 H       1  UNL1        0.0278
     23 C           0.8392   10.3742    5.6938 C.ar    1  UNL1        0.0414
     24 C           1.6903   11.1817    6.4477 C.ar    1  UNL1       -0.0288
     25 C           2.4990   10.5739    7.3993 C.ar    1  UNL1       -0.0571
     26 H           3.1703   11.1825    7.9859 H       1  UNL1        0.0621
     27 C           2.4621    9.2053    7.5895 C.ar    1  UNL1       -0.0611
     28 H           3.1053    8.7469    8.3250 H       1  UNL1        0.0618
     29 C           1.6030    8.4215    6.8409 C.ar    1  UNL1       -0.0571
     30 H           1.5741    7.3535    6.9954 H       1  UNL1        0.0621
     31 C           0.7728    8.9935    5.8882 C.ar    1  UNL1       -0.0288
     32 C           1.7550   12.6568    6.2089 C.3     1  UNL1       -0.0379
     33 H           0.7587   13.0889    6.1219 H       1  UNL1        0.0278
     34 H           2.2954   12.8472    5.2750 H       1  UNL1        0.0278
     35 H           2.2825   13.1524    7.0190 H       1  UNL1        0.0278
     36 C          -0.1786    8.1591    5.0858 C.3     1  UNL1       -0.0379
     37 H          -0.0135    8.3146    4.0207 H       1  UNL1        0.0278
     38 H          -1.2119    8.4271    5.3105 H       1  UNL1        0.0278
     39 H          -0.0426    7.1050    5.3094 H       1  UNL1        0.0278
     40 N          -0.8905   11.6361    2.8978 N.pl3   1  UNL1       -0.2762
     41 N          -0.0261   10.9587    4.7259 N.pl3   1  UNL1       -0.2762
@<TRIPOS>BOND
     1    11    10    1
     2    13    12    1
     3    10    12   ar
     4    10     8   ar
     5    12    14   ar
     6     9     8    1
     7     8     7   ar
     8    20    19    1
     9    14    19    1
    10    14     6   ar
    11     7     6   ar
    12     7    15    1
    13    19    22    1
    14    19    21    1
    15     6    40    1
    16    18    15    1
    17    15    17    1
    18    15    16    1
    19    40     1    1
    20    40     4    1
    21     1    41    1
    22     5     4    1
    23     4     2    2
    24    37    36    1
    25    41     2    1
    26    41    23    1
    27     2     3    1
    28    36    39    1
    29    36    38    1
    30    36    31    1
    31    34    32    1
    32    23    31   ar
    33    23    24   ar
    34    31    29   ar
    35    33    32    1
    36    32    24    1
    37    32    35    1
    38    24    25   ar
    39    29    30    1
    40    29    27   ar
    41    25    27   ar
    42    25    26    1
    43    27    28    1
