@<TRIPOS>MOLECULE
2
 16 15 0 0 0
SMALL
GASTEIGER

@<TRIPOS>ATOM
      1 SI          2.8487   11.4076   -1.3424 Si      1  UNL1        0.0000
      2 C           2.1832   10.5732    0.2086 C.3     1  UNL1        0.0000
      3 H           2.5283    9.5245    0.1715 H       1  UNL1        0.0000
      4 H           1.0922   10.5120    0.0602 H       1  UNL1        0.0000
      5 C           2.0673   10.7770   -2.9840 C.3     1  UNL1        0.0000
      6 H           2.2214    9.7092   -3.1083 H       1  UNL1        0.0000
      7 H           2.4890   11.2705   -3.8549 H       1  UNL1        0.0000
      8 H           0.9954   10.9549   -2.9943 H       1  UNL1        0.0000
      9 C           4.7401   11.1634   -1.5074 C.3     1  UNL1        0.0000
     10 H           5.2497   11.4169   -0.5824 H       1  UNL1        0.0000
     11 H           5.1563   11.7849   -2.2943 H       1  UNL1        0.0000
     12 H           4.9826   10.1320   -1.7437 H       1  UNL1        0.0000
     13 C           2.4727   13.2873   -1.2871 C.3     1  UNL1        0.0000
     14 H           3.0983   13.7910   -0.5558 H       1  UNL1        0.0000
     15 H           1.4352   13.4651   -1.0153 H       1  UNL1        0.0000
     16 H           2.6453   13.7597   -2.2494 H       1  UNL1        0.0000
@<TRIPOS>BOND
     1     7     5    1
     2     6     5    1
     3     8     5    1
     4     5     1    1
     5    11     9    1
     6    16    13    1
     7    12     9    1
     8     9     1    1
     9     9    10    1
    10     1    13    1
    11     1     2    1
    12    13    15    1
    13    13    14    1
    14     4     2    1
    15     3     2    1
