@<TRIPOS>MOLECULE
2
 16 15 0 0 0
SMALL
GASTEIGER

@<TRIPOS>ATOM
      1 SI          4.3901   14.4533    2.8458 Si      1  UNL1        0.0000
      2 C           2.6672   13.7307    2.6203 C.3     1  UNL1        0.0000
      3 H           2.2609   14.1402    1.6795 H       1  UNL1        0.0000
      4 H           2.0263   14.1602    3.4080 H       1  UNL1        0.0000
      5 C           4.6028   16.3265    2.4764 C.3     1  UNL1        0.0000
      6 H           3.9952   16.9326    3.1422 H       1  UNL1        0.0000
      7 H           4.2993   16.5573    1.4594 H       1  UNL1        0.0000
      8 H           5.6336   16.6491    2.5901 H       1  UNL1        0.0000
      9 C           5.5912   13.5171    1.6818 C.3     1  UNL1        0.0000
     10 H           5.4270   12.4379    1.7462 H       1  UNL1        0.0000
     11 H           6.6307   13.7105    1.9277 H       1  UNL1        0.0000
     12 H           5.4427   13.8118    0.6473 H       1  UNL1        0.0000
     13 C           4.9894   14.1892    4.6500 C.3     1  UNL1        0.0000
     14 H           4.3976   14.7671    5.3535 H       1  UNL1        0.0000
     15 H           6.0238   14.4960    4.7687 H       1  UNL1        0.0000
     16 H           4.9212   13.1433    4.9371 H       1  UNL1        0.0000
@<TRIPOS>BOND
     1    12     9    1
     2     7     5    1
     3     3     2    1
     4     9    10    1
     5     9    11    1
     6     9     1    1
     7     5     8    1
     8     5     1    1
     9     5     6    1
    10     2     1    1
    11     2     4    1
    12     1    13    1
    13    13    15    1
    14    13    16    1
    15    13    14    1
