@<TRIPOS>MOLECULE
2
 16 15 0 0 0
SMALL
GASTEIGER

@<TRIPOS>ATOM
      1 SI          4.3745    8.4615    3.2639 Si      1  UNL1        0.0000
      2 C           3.9526   10.2266    3.7466 C.3     1  UNL1        0.0000
      3 H           4.9065   10.7688    3.8611 H       1  UNL1        0.0000
      4 H           3.5271   10.1965    4.7626 H       1  UNL1        0.0000
      5 C           5.2841    7.3954    4.5779 C.3     1  UNL1        0.0000
      6 H           6.2610    7.8091    4.8087 H       1  UNL1        0.0000
      7 H           5.4318    6.3716    4.2465 H       1  UNL1        0.0000
      8 H           4.7180    7.3628    5.5047 H       1  UNL1        0.0000
      9 C           5.4492    8.4596    1.6793 C.3     1  UNL1        0.0000
     10 H           5.0076    9.0925    0.9127 H       1  UNL1        0.0000
     11 H           5.5602    7.4622    1.2650 H       1  UNL1        0.0000
     12 H           6.4452    8.8391    1.8844 H       1  UNL1        0.0000
     13 C           2.7392    7.5228    2.8843 C.3     1  UNL1        0.0000
     14 H           2.0199    8.1880    2.4025 H       1  UNL1        0.0000
     15 H           2.2887    7.1439    3.7954 H       1  UNL1        0.0000
     16 H           2.9027    6.6767    2.2248 H       1  UNL1        0.0000
@<TRIPOS>BOND
     1    10     9    1
     2    11     9    1
     3     9    12    1
     4     9     1    1
     5    16    13    1
     6    14    13    1
     7    13     1    1
     8    13    15    1
     9     1     2    1
    10     1     5    1
    11     2     3    1
    12     2     4    1
    13     7     5    1
    14     5     6    1
    15     5     8    1
