@<TRIPOS>MOLECULE
2
 16 15 0 0 0
SMALL
GASTEIGER

@<TRIPOS>ATOM
      1 SI          0.3771    4.3312   17.7381 Si      1  UNL1        0.0000
      2 C           1.8402    5.3565   18.3237 C.3     1  UNL1        0.0000
      3 H           1.8244    5.3972   19.4205 H       1  UNL1        0.0000
      4 H           1.7005    6.3911   17.9902 H       1  UNL1        0.0000
      5 C           0.7814    2.4639   17.9552 C.3     1  UNL1        0.0000
      6 H           1.7695    2.2130   17.5689 H       1  UNL1        0.0000
      7 H           0.0553    1.8339   17.4491 H       1  UNL1        0.0000
      8 H           0.7622    2.1920   19.0065 H       1  UNL1        0.0000
      9 C           0.0509    4.7167   15.8855 C.3     1  UNL1        0.0000
     10 H           0.9572    5.0378   15.3784 H       1  UNL1        0.0000
     11 H          -0.6742    5.5179   15.7900 H       1  UNL1        0.0000
     12 H          -0.3457    3.8588   15.3517 H       1  UNL1        0.0000
     13 C          -1.2858    4.6141   18.6537 C.3     1  UNL1        0.0000
     14 H          -1.1989    4.3737   19.7090 H       1  UNL1        0.0000
     15 H          -2.0837    4.0022   18.2431 H       1  UNL1        0.0000
     16 H          -1.5981    5.6512   18.5814 H       1  UNL1        0.0000
@<TRIPOS>BOND
     1    12     9    1
     2    10     9    1
     3    11     9    1
     4     9     1    1
     5     7     5    1
     6     6     5    1
     7     1     5    1
     8     1     2    1
     9     1    13    1
    10     5     8    1
    11     4     2    1
    12    15    13    1
    13     2     3    1
    14    16    13    1
    15    13    14    1
