@<TRIPOS>MOLECULE
2
 16 15 0 0 0
SMALL
GASTEIGER

@<TRIPOS>ATOM
      1 SI          3.3341    1.6069    0.5228 Si      1  UNL1        0.0000
      2 C           1.5534    1.2858    1.0600 C.3     1  UNL1        0.0000
      3 H           1.2876    0.2594    0.7484 H       1  UNL1        0.0000
      4 H           0.9229    1.9416    0.4339 H       1  UNL1        0.0000
      5 C           3.7969    3.4096    0.9717 C.3     1  UNL1        0.0000
      6 H           3.2500    4.1178    0.3570 H       1  UNL1        0.0000
      7 H           4.8552    3.6024    0.8289 H       1  UNL1        0.0000
      8 H           3.5552    3.6208    2.0105 H       1  UNL1        0.0000
      9 C           4.5514    0.4100    1.3978 C.3     1  UNL1        0.0000
     10 H           4.5088    0.5206    2.4774 H       1  UNL1        0.0000
     11 H           5.5743    0.5996    1.0884 H       1  UNL1        0.0000
     12 H           4.3292   -0.6263    1.1619 H       1  UNL1        0.0000
     13 C           3.6472    1.3957   -1.3625 C.3     1  UNL1        0.0000
     14 H           3.4493    0.3775   -1.6847 H       1  UNL1        0.0000
     15 H           4.6745    1.6273   -1.6274 H       1  UNL1        0.0000
     16 H           3.0052    2.0513   -1.9434 H       1  UNL1        0.0000
@<TRIPOS>BOND
     1    16    13    1
     2    14    13    1
     3    15    13    1
     4    13     1    1
     5     6     5    1
     6     4     2    1
     7     1     5    1
     8     1     2    1
     9     1     9    1
    10     3     2    1
    11     7     5    1
    12     5     8    1
    13    11     9    1
    14    12     9    1
    15     9    10    1
