@<TRIPOS>MOLECULE
2
 16 15 0 0 0
SMALL
GASTEIGER

@<TRIPOS>ATOM
      1 SI          2.3179    2.0017    6.4583 Si      1  UNL1        0.0000
      2 C           2.4933    2.1663    4.5829 C.3     1  UNL1        0.0000
      3 H           3.3992    1.6164    4.2844 H       1  UNL1        0.0000
      4 H           2.7300    3.2237    4.3772 H       1  UNL1        0.0000
      5 C           0.9362    0.7488    6.9482 C.3     1  UNL1        0.0000
      6 H           0.1401    0.7276    6.2042 H       1  UNL1        0.0000
      7 H           0.4918    1.0036    7.9060 H       1  UNL1        0.0000
      8 H           1.3301   -0.2598    7.0377 H       1  UNL1        0.0000
      9 C           1.8872    3.6777    7.2863 C.3     1  UNL1        0.0000
     10 H           2.6833    4.4003    7.1353 H       1  UNL1        0.0000
     11 H           1.7438    3.5692    8.3574 H       1  UNL1        0.0000
     12 H           0.9784    4.1051    6.8752 H       1  UNL1        0.0000
     13 C           3.9138    1.3687    7.3175 C.3     1  UNL1        0.0000
     14 H           4.2301    0.4165    6.9014 H       1  UNL1        0.0000
     15 H           3.7691    1.2273    8.3843 H       1  UNL1        0.0000
     16 H           4.7340    2.0675    7.1877 H       1  UNL1        0.0000
@<TRIPOS>BOND
     1     3     2    1
     2     4     2    1
     3     2     1    1
     4     6     5    1
     5     1     5    1
     6     1     9    1
     7     1    13    1
     8    12     9    1
     9    14    13    1
    10     5     8    1
    11     5     7    1
    12    10     9    1
    13    16    13    1
    14     9    11    1
    15    13    15    1
