@<TRIPOS>MOLECULE
2
 16 15 0 0 0
SMALL
GASTEIGER

@<TRIPOS>ATOM
      1 SI          4.9516    7.7628   16.6163 Si      1  UNL1        0.0000
      2 C           5.3563    5.9337   16.4246 C.3     1  UNL1        0.0000
      3 H           6.3878    5.7590   16.7584 H       1  UNL1        0.0000
      4 H           5.3419    5.6836   15.3558 H       1  UNL1        0.0000
      5 C           4.7759    8.1482   18.4854 C.3     1  UNL1        0.0000
      6 H           4.0507    7.4874   18.9604 H       1  UNL1        0.0000
      7 H           4.4555    9.1712   18.6565 H       1  UNL1        0.0000
      8 H           5.7252    8.0162   18.9958 H       1  UNL1        0.0000
      9 C           6.2393    8.9962   15.9065 C.3     1  UNL1        0.0000
     10 H           7.2024    8.8798   16.3939 H       1  UNL1        0.0000
     11 H           5.9261   10.0269   16.0421 H       1  UNL1        0.0000
     12 H           6.3906    8.8373   14.8433 H       1  UNL1        0.0000
     13 C           3.2900    8.1095   15.7237 C.3     1  UNL1        0.0000
     14 H           3.4305    8.1652   14.6487 H       1  UNL1        0.0000
     15 H           2.8557    9.0516   16.0424 H       1  UNL1        0.0000
     16 H           2.5635    7.3240   15.9217 H       1  UNL1        0.0000
@<TRIPOS>BOND
     1    14    13    1
     2    12     9    1
     3     4     2    1
     4    13    16    1
     5    13    15    1
     6    13     1    1
     7     9    11    1
     8     9    10    1
     9     9     1    1
    10     2     1    1
    11     2     3    1
    12     1     5    1
    13     5     7    1
    14     5     6    1
    15     5     8    1
