@<TRIPOS>MOLECULE
2
 16 15 0 0 0
SMALL
GASTEIGER

@<TRIPOS>ATOM
      1 SI         14.8375   10.2504    8.5360 Si      1  UNL1        0.0000
      2 C          13.1616   10.2542    9.3867 C.3     1  UNL1        0.0000
      3 H          12.3825    9.9388    8.6802 H       1  UNL1        0.0000
      4 H          12.9130   11.2873    9.6618 H       1  UNL1        0.0000
      5 C          14.9579   11.1904    6.8658 C.3     1  UNL1        0.0000
      6 H          14.2963   10.7555    6.1229 H       1  UNL1        0.0000
      7 H          15.9652   11.1654    6.4613 H       1  UNL1        0.0000
      8 H          14.6773   12.2327    6.9812 H       1  UNL1        0.0000
      9 C          15.3578    8.4384    8.1754 C.3     1  UNL1        0.0000
     10 H          15.3123    7.8261    9.0739 H       1  UNL1        0.0000
     11 H          16.3715    8.3883    7.7907 H       1  UNL1        0.0000
     12 H          14.7095    7.9866    7.4303 H       1  UNL1        0.0000
     13 C          16.1050   11.0573    9.7272 C.3     1  UNL1        0.0000
     14 H          16.0696   12.1400    9.6567 H       1  UNL1        0.0000
     15 H          17.1213   10.7518    9.5014 H       1  UNL1        0.0000
     16 H          15.8966   10.7855   10.7607 H       1  UNL1        0.0000
@<TRIPOS>BOND
     1     6     5    1
     2     7     5    1
     3     5     8    1
     4     5     1    1
     5    12     9    1
     6    11     9    1
     7     9     1    1
     8     9    10    1
     9     1     2    1
    10     1    13    1
    11     3     2    1
    12     2     4    1
    13    15    13    1
    14    14    13    1
    15    13    16    1
