@<TRIPOS>MOLECULE
2
 16 15 0 0 0
SMALL
GASTEIGER

@<TRIPOS>ATOM
      1 SI         15.1303    6.2550   12.5899 Si      1  UNL1        0.0000
      2 C          15.0631    8.0882   12.1673 C.3     1  UNL1        0.0000
      3 H          15.8899    8.3100   11.4824 H       1  UNL1        0.0000
      4 H          15.2827    8.6575   13.0802 H       1  UNL1        0.0000
      5 C          13.4279    5.6673   13.2669 C.3     1  UNL1        0.0000
      6 H          13.3682    5.8105   14.3416 H       1  UNL1        0.0000
      7 H          13.2640    4.6096   13.0797 H       1  UNL1        0.0000
      8 H          12.6038    6.2233   12.8159 H       1  UNL1        0.0000
      9 C          15.5520    5.2136   11.0344 C.3     1  UNL1        0.0000
     10 H          14.9692    5.5076   10.1668 H       1  UNL1        0.0000
     11 H          15.3794    4.1554   11.2053 H       1  UNL1        0.0000
     12 H          16.5984    5.3329   10.7736 H       1  UNL1        0.0000
     13 C          16.4219    5.7630   13.9210 C.3     1  UNL1        0.0000
     14 H          17.4294    5.9971   13.5917 H       1  UNL1        0.0000
     15 H          16.3888    4.7011   14.1464 H       1  UNL1        0.0000
     16 H          16.2513    6.3001   14.8493 H       1  UNL1        0.0000
@<TRIPOS>BOND
     1    10     9    1
     2    12     9    1
     3     9    11    1
     4     9     1    1
     5     3     2    1
     6     2     1    1
     7     2     4    1
     8     1     5    1
     9     1    13    1
    10     8     5    1
    11     7     5    1
    12     5     6    1
    13    14    13    1
    14    13    15    1
    15    13    16    1
