@<TRIPOS>MOLECULE
2
 18 17 0 0 0
SMALL
GASTEIGER

@<TRIPOS>ATOM
      1 SI         12.0662    5.2942    2.4512 Si      1  UNL1        0.0000
      2 C           6.3084    3.9528    6.1206 C.3     1  UNL1        0.0000
      3 C           7.4004    4.2348    5.4544 C.1     1  UNL1        0.0000
      4 C           9.5150    4.7539    4.0791 C.1     1  UNL1        0.0000
      5 C           8.4227    4.4970    4.7900 C.1     1  UNL1        0.0000
      6 C          10.5239    4.9855    3.4220 C.1     1  UNL1        0.0000
      7 C          13.4952    5.6206    3.6709 C.3     1  UNL1        0.0000
      8 H          13.2929    6.4892    4.2904 H       1  UNL1        0.0000
      9 H          14.4303    5.7993    3.1475 H       1  UNL1        0.0000
     10 H          13.6451    4.7738    4.3339 H       1  UNL1        0.0000
     11 C          11.7859    6.8122    1.3305 C.3     1  UNL1        0.0000
     12 H          10.9575    6.6495    0.6475 H       1  UNL1        0.0000
     13 H          12.6668    7.0303    0.7333 H       1  UNL1        0.0000
     14 H          11.5582    7.6975    1.9166 H       1  UNL1        0.0000
     15 C          12.4316    3.7488    1.3945 C.3     1  UNL1        0.0000
     16 H          12.5664    2.8704    2.0185 H       1  UNL1        0.0000
     17 H          13.3352    3.8761    0.8050 H       1  UNL1        0.0000
     18 H          11.6169    3.5402    0.7075 H       1  UNL1        0.0000
@<TRIPOS>BOND
     1    12    11    1
     2    18    15    1
     3    13    11    1
     4    17    15    1
     5    11    14    1
     6    11     1    1
     7    15    16    1
     8    15     1    1
     9     1     6    1
    10     1     7    1
    11     9     7    1
    12     6     4    3
    13     7     8    1
    14     7    10    1
    15     4     5    1
    16     5     3    3
    17     3     2    1
