@<TRIPOS>MOLECULE
1
 4 3 0 0 0
SMALL
GASTEIGER

@<TRIPOS>ATOM
      1 C          -1.3747    4.2493   13.4996 C.3     1  UNL1       -0.0681
      2 H          -1.1701    3.8944   14.5089 H       1  UNL1        0.0227
      3 H          -2.3308    3.8110   13.2024 H       1  UNL1        0.0227
      4 H          -1.5432    5.3201   13.6067 H       1  UNL1        0.0227
@<TRIPOS>BOND
     1     3     1    1
     2     1     4    1
     3     1     2    1
