@<TRIPOS>MOLECULE
1
 4 3 0 0 0
SMALL
GASTEIGER

@<TRIPOS>ATOM
      1 C           1.3420    4.9121   13.4113 C.3     1  UNL1       -0.0681
      2 H           1.3753    4.5178   14.4304 H       1  UNL1        0.0227
      3 H           0.9990    5.9443   13.5216 H       1  UNL1        0.0227
      4 H           2.3786    4.9609   13.0583 H       1  UNL1        0.0227
@<TRIPOS>BOND
     1     4     1    1
     2     1     3    1
     3     1     2    1
