@<TRIPOS>MOLECULE
2
 15 14 0 0 0
SMALL
GASTEIGER

@<TRIPOS>ATOM
      1 SI          8.7058   -0.5571    4.6051 Si      1  UNL1        0.0000
      2 C           8.2060    1.2199    4.7716 C.3     1  UNL1        0.0000
      3 H           9.0118    1.7839    5.2804 H       1  UNL1        0.0000
      4 C           7.3023   -1.7024    3.9790 C.3     1  UNL1        0.0000
      5 H           7.0198   -1.4835    2.9543 H       1  UNL1        0.0000
      6 H           6.4096   -1.5958    4.5873 H       1  UNL1        0.0000
      7 H           7.6034   -2.7451    4.0183 H       1  UNL1        0.0000
      8 C           9.3114   -1.3348    6.2634 C.3     1  UNL1        0.0000
      9 H          10.0151   -0.6777    6.7660 H       1  UNL1        0.0000
     10 H           9.8175   -2.2808    6.0935 H       1  UNL1        0.0000
     11 H           8.4925   -1.5213    6.9502 H       1  UNL1        0.0000
     12 C          10.2200   -0.8346    3.4404 C.3     1  UNL1        0.0000
     13 H          11.0511   -0.2007    3.7359 H       1  UNL1        0.0000
     14 H           9.9901   -0.6107    2.4045 H       1  UNL1        0.0000
     15 H          10.5656   -1.8636    3.4828 H       1  UNL1        0.0000
@<TRIPOS>BOND
     1    14    12    1
     2     5     4    1
     3    12    15    1
     4    12    13    1
     5    12     1    1
     6     4     7    1
     7     4     6    1
     8     4     1    1
     9     1     2    1
    10     1     8    1
    11     2     3    1
    12    10     8    1
    13     8     9    1
    14     8    11    1
