@<TRIPOS>MOLECULE
2
 16 15 0 0 0
SMALL
GASTEIGER

@<TRIPOS>ATOM
      1 SI          7.2449   -1.7971   14.7038 Si      1  UNL1        0.0000
      2 C           6.7238   -0.0966   14.0999 C.3     1  UNL1        0.0000
      3 H           7.5447    0.5996   14.3364 H       1  UNL1        0.0000
      4 H           5.8630    0.2540   14.6972 H       1  UNL1        0.0000
      5 C           9.0699   -2.1086   14.2075 C.3     1  UNL1        0.0000
      6 H           9.3177   -1.5674   13.2983 H       1  UNL1        0.0000
      7 H           9.2768   -3.1610   14.0398 H       1  UNL1        0.0000
      8 H           9.7450   -1.7647   14.9846 H       1  UNL1        0.0000
      9 C           7.1274   -2.0909   16.6002 C.3     1  UNL1        0.0000
     10 H           7.7562   -1.3926   17.1441 H       1  UNL1        0.0000
     11 H           7.4412   -3.0942   16.8730 H       1  UNL1        0.0000
     12 H           6.1104   -1.9587   16.9590 H       1  UNL1        0.0000
     13 C           6.1286   -3.1562   13.9185 C.3     1  UNL1        0.0000
     14 H           5.2153   -3.2957   14.4903 H       1  UNL1        0.0000
     15 H           6.6332   -4.1167   13.8847 H       1  UNL1        0.0000
     16 H           5.8540   -2.8885   12.8995 H       1  UNL1        0.0000
@<TRIPOS>BOND
     1    16    13    1
     2     6     5    1
     3    15    13    1
     4    13    14    1
     5    13     1    1
     6     7     5    1
     7     2     3    1
     8     2     4    1
     9     2     1    1
    10     5     1    1
    11     5     8    1
    12     1     9    1
    13     9    11    1
    14     9    12    1
    15     9    10    1
