@<TRIPOS>MOLECULE
2
 16 15 0 0 0
SMALL
GASTEIGER

@<TRIPOS>ATOM
      1 SI          2.5943    3.0111   15.6719 Si      1  UNL1        0.0000
      2 C           1.5894    4.3405   16.5566 C.3     1  UNL1        0.0000
      3 H           0.7678    4.6315   15.8877 H       1  UNL1        0.0000
      4 H           2.2191    5.2366   16.6407 H       1  UNL1        0.0000
      5 C           4.3986    2.9328   16.3046 C.3     1  UNL1        0.0000
      6 H           4.8982    3.8904   16.1960 H       1  UNL1        0.0000
      7 H           4.9725    2.2015   15.7440 H       1  UNL1        0.0000
      8 H           4.4453    2.6513   17.3502 H       1  UNL1        0.0000
      9 C           1.7773    1.2981   15.9367 C.3     1  UNL1        0.0000
     10 H           1.5062    1.1384   16.9801 H       1  UNL1        0.0000
     11 H           2.4458    0.4926   15.6501 H       1  UNL1        0.0000
     12 H           0.8801    1.1988   15.3319 H       1  UNL1        0.0000
     13 C           2.7072    3.2748   13.7740 C.3     1  UNL1        0.0000
     14 H           1.7194    3.3245   13.3260 H       1  UNL1        0.0000
     15 H           3.2470    2.4692   13.2854 H       1  UNL1        0.0000
     16 H           3.2183    4.2025   13.5359 H       1  UNL1        0.0000
@<TRIPOS>BOND
     1    15    13    1
     2    14    13    1
     3    16    13    1
     4    13     1    1
     5    12     9    1
     6    11     9    1
     7     1     9    1
     8     1     5    1
     9     1     2    1
    10     7     5    1
    11     3     2    1
    12     9    10    1
    13     6     5    1
    14     5     8    1
    15     2     4    1
