@<TRIPOS>MOLECULE
2
 16 15 0 0 0
SMALL
GASTEIGER

@<TRIPOS>ATOM
      1 SI         -1.6337    6.6271   18.2694 Si      1  UNL1        0.0000
      2 C          -0.9099    5.4780   19.5705 C.3     1  UNL1        0.0000
      3 H          -1.7142    4.9365   20.0802 H       1  UNL1        0.0000
      4 H          -0.4030    6.0733   20.3389 H       1  UNL1        0.0000
      5 C          -2.3835    5.5758   16.8456 C.3     1  UNL1        0.0000
      6 H          -1.7948    4.6758   16.6636 H       1  UNL1        0.0000
      7 H          -2.4239    6.1375   15.9177 H       1  UNL1        0.0000
      8 H          -3.3991    5.2693   17.0778 H       1  UNL1        0.0000
      9 C          -0.2275    7.7200   17.5606 C.3     1  UNL1        0.0000
     10 H           0.1656    8.3870   18.3217 H       1  UNL1        0.0000
     11 H          -0.5770    8.3367   16.7387 H       1  UNL1        0.0000
     12 H           0.5964    7.1135   17.1928 H       1  UNL1        0.0000
     13 C          -3.0221    7.8127   18.8608 C.3     1  UNL1        0.0000
     14 H          -3.8500    7.2616   19.2963 H       1  UNL1        0.0000
     15 H          -3.4190    8.4091   18.0448 H       1  UNL1        0.0000
     16 H          -2.6540    8.4980   19.6177 H       1  UNL1        0.0000
@<TRIPOS>BOND
     1     7     5    1
     2     6     5    1
     3    11     9    1
     4     5     8    1
     5     5     1    1
     6    12     9    1
     7     9     1    1
     8     9    10    1
     9    15    13    1
    10     1    13    1
    11     1     2    1
    12    13    14    1
    13    13    16    1
    14     2     3    1
    15     2     4    1
