@<TRIPOS>MOLECULE
6
 16 15 0 0 0
SMALL
GASTEIGER

@<TRIPOS>ATOM
      1 SI          4.6215    6.9677    6.0191 Si      1  UNL1        0.0000
      2 C           4.0723    5.2497    6.6959 C.3     1  UNL1        0.0000
      3 H           4.2979    5.1614    7.7587 H       1  UNL1        0.0000
      4 H           4.5736    4.4317    6.1882 H       1  UNL1        0.0000
      5 H           3.0031    5.0984    6.5721 H       1  UNL1        0.0000
      6 C           5.1501    8.0538    7.4696 C.3     1  UNL1        0.0000
      7 H           5.4322    9.0451    7.0794 H       1  UNL1        0.0000
      8 H           6.0781    7.6271    7.8869 H       1  UNL1        0.0000
      9 C           3.1383    7.7531    5.0867 C.3     1  UNL1        0.0000
     10 H           2.8734    7.1777    4.2048 H       1  UNL1        0.0000
     11 H           3.3667    8.7637    4.7606 H       1  UNL1        0.0000
     12 H           2.2574    7.8049    5.7214 H       1  UNL1        0.0000
     13 C           5.9768    6.6408    4.6944 C.3     1  UNL1        0.0000
     14 H           6.8445    6.1546    5.1307 H       1  UNL1        0.0000
     15 H           6.3161    7.5682    4.2431 H       1  UNL1        0.0000
     16 H           5.6126    6.0029    3.8944 H       1  UNL1        0.0000
@<TRIPOS>BOND
     1    16    13    1
     2    10     9    1
     3    15    13    1
     4    13    14    1
     5    13     1    1
     6    11     9    1
     7     9    12    1
     8     9     1    1
     9     1     2    1
    10     1     6    1
    11     4     2    1
    12     5     2    1
    13     2     3    1
    14     7     6    1
    15     6     8    1
