@<TRIPOS>MOLECULE
6
 16 15 0 0 0
SMALL
GASTEIGER

@<TRIPOS>ATOM
      1 SI          2.3178    9.6179   12.0491 Si      1  UNL1        0.0000
      2 C           2.3824   10.8612   13.5137 C.3     1  UNL1        0.0000
      3 H           3.2678   10.7045   14.1224 H       1  UNL1        0.0000
      4 H           1.5180   10.7653   14.1640 H       1  UNL1        0.0000
      5 H           2.4103   11.8863   13.1568 H       1  UNL1        0.0000
      6 C           3.7649    9.6845   10.8414 C.3     1  UNL1        0.0000
      7 H           4.6927    9.5054   11.4090 H       1  UNL1        0.0000
      8 H           3.8506   10.7173   10.4661 H       1  UNL1        0.0000
      9 C           2.1928    7.8624   12.8180 C.3     1  UNL1        0.0000
     10 H           3.1348    7.5561   13.2655 H       1  UNL1        0.0000
     11 H           1.9326    7.1291   12.0572 H       1  UNL1        0.0000
     12 H           1.4331    7.8141   13.5922 H       1  UNL1        0.0000
     13 C           0.6728    9.9473   11.1136 C.3     1  UNL1        0.0000
     14 H          -0.1724   10.0061   11.7925 H       1  UNL1        0.0000
     15 H           0.4685    9.1471   10.4046 H       1  UNL1        0.0000
     16 H           0.7106   10.8807   10.5580 H       1  UNL1        0.0000
@<TRIPOS>BOND
     1    15    13    1
     2     8     6    1
     3    16    13    1
     4     6     7    1
     5     6     1    1
     6    13    14    1
     7    13     1    1
     8     1     9    1
     9     1     2    1
    10    11     9    1
    11     9    10    1
    12     9    12    1
    13     5     2    1
    14     2     3    1
    15     2     4    1
