@<TRIPOS>MOLECULE
2
 23 23 0 0 0
SMALL
GASTEIGER

@<TRIPOS>ATOM
      1 SI          3.3908   32.6066    3.7645 Si      1  UNL1        0.0000
      2 C           2.0890   32.3773    2.4300 C.3     1  UNL1        0.0000
      3 H           1.0976   32.5702    2.8607 H       1  UNL1        0.0000
      4 H           2.0665   31.3366    2.0859 H       1  UNL1        0.0000
      5 C           2.9705   31.9538    5.5187 C.3     1  UNL1        0.0000
      6 H           3.7499   32.1956    6.2353 H       1  UNL1        0.0000
      7 H           2.0454   32.3899    5.8834 H       1  UNL1        0.0000
      8 H           2.8464   30.8753    5.5160 H       1  UNL1        0.0000
      9 C           5.0667   31.8366    3.2577 C.3     1  UNL1        0.0000
     10 H           5.7997   31.9350    4.0516 H       1  UNL1        0.0000
     11 H           4.9565   30.7768    3.0533 H       1  UNL1        0.0000
     12 H           5.4738   32.3081    2.3680 H       1  UNL1        0.0000
     13 C           3.6152   34.4962    3.9449 C.ar    1  UNL1        0.0000
     14 C           2.4920   35.3193    4.0035 C.ar    1  UNL1        0.0000
     15 H           1.5056   34.8852    3.8866 H       1  UNL1        0.0000
     16 C           2.6023   36.6721    4.2741 C.ar    1  UNL1        0.0000
     17 H           1.7142   37.2816    4.3468 H       1  UNL1        0.0000
     18 C           3.8514   37.2399    4.4608 C.ar    1  UNL1        0.0000
     19 H           3.9410   38.2945    4.6787 H       1  UNL1        0.0000
     20 C           4.9829   36.4472    4.3738 C.ar    1  UNL1        0.0000
     21 H           5.9614   36.8852    4.5141 H       1  UNL1        0.0000
     22 C           4.8595   35.0910    4.1275 C.ar    1  UNL1        0.0000
     23 H           5.7481   34.4781    4.0870 H       1  UNL1        0.0000
@<TRIPOS>BOND
     1     4     2    1
     2    12     9    1
     3     2     3    1
     4     2     1    1
     5    11     9    1
     6     9     1    1
     7     9    10    1
     8     1    13    1
     9     1     5    1
    10    15    14    1
    11    13    14   ar
    12    13    22   ar
    13    14    16   ar
    14    23    22    1
    15    22    20   ar
    16    16    17    1
    17    16    18   ar
    18    20    18   ar
    19    20    21    1
    20    18    19    1
    21     8     5    1
    22     5     7    1
    23     5     6    1
