@<TRIPOS>MOLECULE
2
 23 23 0 0 0
SMALL
GASTEIGER

@<TRIPOS>ATOM
      1 SI          4.8795   34.8168   -2.0182 Si      1  UNL1        0.0000
      2 C           4.5721   34.3450   -0.2150 C.3     1  UNL1        0.0000
      3 H           5.0372   35.1203    0.4084 H       1  UNL1        0.0000
      4 H           5.1748   33.4433   -0.0340 H       1  UNL1        0.0000
      5 C           6.7224   34.5814   -2.5058 C.3     1  UNL1        0.0000
      6 H           6.9302   34.9543   -3.5040 H       1  UNL1        0.0000
      7 H           7.3828   35.0982   -1.8168 H       1  UNL1        0.0000
      8 H           6.9963   33.5308   -2.4840 H       1  UNL1        0.0000
      9 C           3.8894   33.7804   -3.2912 C.3     1  UNL1        0.0000
     10 H           3.9069   34.2627   -4.2646 H       1  UNL1        0.0000
     11 H           4.3121   32.7911   -3.4183 H       1  UNL1        0.0000
     12 H           2.8488   33.6690   -2.9985 H       1  UNL1        0.0000
     13 C           4.4555   36.6099   -2.5131 C.ar    1  UNL1        0.0000
     14 C           3.2303   36.9108   -3.1018 C.ar    1  UNL1        0.0000
     15 H           2.4672   36.1468   -3.1496 H       1  UNL1        0.0000
     16 C           2.9772   38.1582   -3.6433 C.ar    1  UNL1        0.0000
     17 H           2.0242   38.3639   -4.1121 H       1  UNL1        0.0000
     18 C           3.9502   39.1431   -3.6005 C.ar    1  UNL1        0.0000
     19 H           3.7620   40.1141   -4.0363 H       1  UNL1        0.0000
     20 C           5.1634   38.8755   -2.9889 C.ar    1  UNL1        0.0000
     21 H           5.9240   39.6426   -2.9402 H       1  UNL1        0.0000
     22 C           5.4064   37.6227   -2.4532 C.ar    1  UNL1        0.0000
     23 H           6.3630   37.4209   -1.9934 H       1  UNL1        0.0000
@<TRIPOS>BOND
     1    10     9    1
     2    17    16    1
     3    19    18    1
     4    16    18   ar
     5    16    14   ar
     6    18    20   ar
     7     6     5    1
     8    11     9    1
     9     9    12    1
    10     9     1    1
    11    15    14    1
    12    14    13   ar
    13    20    21    1
    14    20    22   ar
    15    13    22   ar
    16    13     1    1
    17     5     8    1
    18     5     1    1
    19     5     7    1
    20    22    23    1
    21     1     2    1
    22     2     4    1
    23     2     3    1
