@<TRIPOS>MOLECULE
1
 4 3 0 0 0
SMALL
GASTEIGER

@<TRIPOS>ATOM
      1 C          -0.2173    2.3460    5.5934 C.3     1  UNL1       -0.0681
      2 H          -0.5107    2.4422    4.5474 H       1  UNL1        0.0227
      3 H           0.1332    1.3175    5.7294 H       1  UNL1        0.0227
      4 H          -1.1478    2.4385    6.1548 H       1  UNL1        0.0227
@<TRIPOS>BOND
     1     2     1    1
     2     1     3    1
     3     1     4    1
