@<TRIPOS>MOLECULE
1
 4 3 0 0 0
SMALL
GASTEIGER

@<TRIPOS>ATOM
      1 C          -0.2172    5.1148    5.5934 C.3     1  UNL1       -0.0681
      2 H          -0.5106    5.0186    4.5473 H       1  UNL1        0.0227
      3 H           0.1332    6.1433    5.7294 H       1  UNL1        0.0227
      4 H          -1.1477    5.0223    6.1548 H       1  UNL1        0.0227
@<TRIPOS>BOND
     1     2     1    1
     2     1     3    1
     3     1     4    1
