@<TRIPOS>MOLECULE
1
 4 3 0 0 0
SMALL
GASTEIGER

@<TRIPOS>ATOM
      1 C           9.5303   15.5902   11.6445 C.3     1  UNL1       -0.0681
      2 H           9.6309   14.7238   10.9945 H       1  UNL1        0.0227
      3 H          10.4841   15.7374   12.1442 H       1  UNL1        0.0227
      4 H           9.3526   16.4570   11.0090 H       1  UNL1        0.0227
@<TRIPOS>BOND
     1     2     1    1
     2     4     1    1
     3     1     3    1
