@<TRIPOS>MOLECULE
2
 16 15 0 0 0
SMALL
GASTEIGER

@<TRIPOS>ATOM
      1 SI          0.0048    4.7988    6.9741 Si      1  UNL1        0.0000
      2 C           1.2726    3.9530    5.8790 C.3     1  UNL1        0.0000
      3 C          -1.6606    3.8597    7.1617 C.3     1  UNL1        0.0000
      4 C           0.6958    4.9930    8.7567 C.3     1  UNL1        0.0000
      5 C          -0.4362    6.5290    6.2791 C.3     1  UNL1        0.0000
      6 H           1.0175    4.1678    4.8343 H       1  UNL1        0.0000
      7 H           1.1346    2.8709    5.9886 H       1  UNL1        0.0000
      8 H          -2.1496    3.7313    6.2009 H       1  UNL1        0.0000
      9 H          -2.3524    4.3850    7.8136 H       1  UNL1        0.0000
     10 H          -1.5063    2.8693    7.5804 H       1  UNL1        0.0000
     11 H           0.3982    4.1564    9.3819 H       1  UNL1        0.0000
     12 H           0.3335    5.8952    9.2404 H       1  UNL1        0.0000
     13 H           1.7852    5.0287    8.7495 H       1  UNL1        0.0000
     14 H           0.4376    7.0102    5.8540 H       1  UNL1        0.0000
     15 H          -0.8389    7.1857    7.0438 H       1  UNL1        0.0000
     16 H          -1.1814    6.4479    5.4944 H       1  UNL1        0.0000
@<TRIPOS>BOND
     1     6     2    1
     2    16     5    1
     3    14     5    1
     4     2     7    1
     5     2     1    1
     6     8     3    1
     7     5     1    1
     8     5    15    1
     9     1     3    1
    10     1     4    1
    11     3    10    1
    12     3     9    1
    13    13     4    1
    14     4    12    1
    15     4    11    1
