@<TRIPOS>MOLECULE
2
 16 15 0 0 0
SMALL
GASTEIGER

@<TRIPOS>ATOM
      1 SI          5.9802    5.3783    9.0132 Si      1  UNL1        0.0000
      2 C           5.7392    4.4711    7.3817 C.3     1  UNL1        0.0000
      3 C           6.8097    4.2613   10.3361 C.3     1  UNL1        0.0000
      4 C           4.3383    5.9829    9.8029 C.3     1  UNL1        0.0000
      5 C           7.1001    6.9294    8.8554 C.3     1  UNL1        0.0000
      6 H           6.0625    3.4383    7.5496 H       1  UNL1        0.0000
      7 H           6.4619    4.8789    6.6617 H       1  UNL1        0.0000
      8 H           6.2745    3.3231   10.4524 H       1  UNL1        0.0000
      9 H           6.8402    4.7407   11.3096 H       1  UNL1        0.0000
     10 H           7.8305    4.0186   10.0585 H       1  UNL1        0.0000
     11 H           3.7020    6.4622    9.0641 H       1  UNL1        0.0000
     12 H           4.5211    6.7018   10.5969 H       1  UNL1        0.0000
     13 H           3.7776    5.1607   10.2390 H       1  UNL1        0.0000
     14 H           8.0256    6.6947    8.3387 H       1  UNL1        0.0000
     15 H           7.3638    7.3282    9.8304 H       1  UNL1        0.0000
     16 H           6.6099    7.7237    8.3022 H       1  UNL1        0.0000
@<TRIPOS>BOND
     1     7     2    1
     2     2     6    1
     3     2     1    1
     4    16     5    1
     5    14     5    1
     6     5     1    1
     7     5    15    1
     8     1     4    1
     9     1     3    1
    10    11     4    1
    11     4    13    1
    12     4    12    1
    13    10     3    1
    14     3     8    1
    15     3     9    1
