@<TRIPOS>MOLECULE
2
 19 19 0 0 0
SMALL
GASTEIGER

@<TRIPOS>ATOM
      1 N          10.5307    2.8869    3.1121 N.3     1  UNL1       -0.2244
      2 C          10.5930    3.6249    4.0197 C.3     1  UNL1        0.1069
      3 C          10.4387    2.1468    1.9239 C.3     1  UNL1        0.0262
      4 C           9.7156    0.8196    2.1745 C.3     1  UNL1       -0.0360
      5 C           9.6072    0.0207    0.8805 C.3     1  UNL1       -0.0516
      6 C           8.8681    0.8254   -0.1831 C.3     1  UNL1       -0.0530
      7 C           9.5895    2.1444   -0.4392 C.3     1  UNL1       -0.0516
      8 C           9.7007    2.9521    0.8488 C.3     1  UNL1       -0.0360
      9 H          11.4660    1.9454    1.5865 H       1  UNL1        0.0477
     10 H          10.2565    0.2387    2.9250 H       1  UNL1        0.0281
     11 H           8.7181    1.0301    2.5656 H       1  UNL1        0.0281
     12 H          10.6092   -0.2250    0.5194 H       1  UNL1        0.0266
     13 H           9.0816   -0.9167    1.0740 H       1  UNL1        0.0266
     14 H           8.8023    0.2492   -1.1081 H       1  UNL1        0.0265
     15 H           7.8514    1.0296    0.1608 H       1  UNL1        0.0265
     16 H          10.5916    1.9434   -0.8263 H       1  UNL1        0.0266
     17 H           9.0512    2.7257   -1.1906 H       1  UNL1        0.0266
     18 H           8.7040    3.2021    1.2217 H       1  UNL1        0.0281
     19 H          10.2449    3.8805    0.6647 H       1  UNL1        0.0281
@<TRIPOS>BOND
     1    17     7    1
     2    14     6    1
     3    16     7    1
     4     7     6    1
     5     7     8    1
     6     6    15    1
     7     6     5    1
     8    12     5    1
     9    19     8    1
    10     8    18    1
    11     8     3    1
    12     5    13    1
    13     5     4    1
    14     9     3    1
    15     3     4    1
    16     3     1    1
    17     4    11    1
    18     4    10    1
    19     1     2    1
