@<TRIPOS>MOLECULE
2
 12 11 0 0 0
SMALL
GASTEIGER

@<TRIPOS>ATOM
      1 P          -0.4417    1.9386    6.6077 P.3     1  UNL1       -0.1119
      2 C          -0.6014    3.6021    7.3409 C.3     1  UNL1       -0.0288
      3 H          -0.2434    3.6093    8.3793 H       1  UNL1        0.0316
      4 H          -1.6525    3.9152    7.3104 H       1  UNL1        0.0316
      5 C          -2.1777    1.2744    6.7678 C.3     1  UNL1       -0.0445
      6 H          -2.5349    1.4029    7.7903 H       1  UNL1        0.0277
      7 H          -2.1920    0.2161    6.5133 H       1  UNL1        0.0277
      8 H          -2.8382    1.8039    6.0855 H       1  UNL1        0.0277
      9 C           0.2651    0.9873    8.0350 C.3     1  UNL1       -0.0445
     10 H           1.2434    1.3901    8.2841 H       1  UNL1        0.0277
     11 H           0.3687   -0.0622    7.7650 H       1  UNL1        0.0277
     12 H          -0.3897    1.0714    8.9034 H       1  UNL1        0.0277
@<TRIPOS>BOND
     1     8     5    1
     2     7     5    1
     3     1     5    1
     4     1     2    1
     5     1     9    1
     6     5     6    1
     7     4     2    1
     8     2     3    1
     9    11     9    1
    10     9    10    1
    11     9    12    1
