@<TRIPOS>MOLECULE
2
 16 15 0 0 0
SMALL
GASTEIGER

@<TRIPOS>ATOM
      1 SI          1.5112    6.8668   -1.6756 Si      1  UNL1        0.0000
      2 C           0.3802    5.5136   -2.3071 C.3     1  UNL1        0.0000
      3 C           2.2290    6.4749    0.0739 C.3     1  UNL1        0.0000
      4 C           3.0157    7.2087   -2.8228 C.3     1  UNL1        0.0000
      5 C           0.6266    8.5651   -1.4762 C.3     1  UNL1        0.0000
      6 H           0.6441    5.2713   -3.3448 H       1  UNL1        0.0000
      7 H          -0.6441    5.9039   -2.3337 H       1  UNL1        0.0000
      8 H           3.3134    6.4220    0.0575 H       1  UNL1        0.0000
      9 H           1.9581    7.2410    0.7952 H       1  UNL1        0.0000
     10 H           1.8484    5.5187    0.4403 H       1  UNL1        0.0000
     11 H           3.6921    7.9410   -2.3926 H       1  UNL1        0.0000
     12 H           3.5802    6.2994   -3.0000 H       1  UNL1        0.0000
     13 H           2.6939    7.5880   -3.7875 H       1  UNL1        0.0000
     14 H           1.2902    9.3269   -1.0792 H       1  UNL1        0.0000
     15 H           0.2454    8.9265   -2.4257 H       1  UNL1        0.0000
     16 H          -0.2168    8.4790   -0.7979 H       1  UNL1        0.0000
@<TRIPOS>BOND
     1    13     4    1
     2     6     2    1
     3    12     4    1
     4     4    11    1
     5     4     1    1
     6    15     5    1
     7     7     2    1
     8     2     1    1
     9     1     5    1
    10     1     3    1
    11     5    14    1
    12     5    16    1
    13     8     3    1
    14     3    10    1
    15     3     9    1
