@<TRIPOS>MOLECULE
2
 16 15 0 0 0
SMALL
GASTEIGER

@<TRIPOS>ATOM
      1 SI         -2.6763    5.0321   -0.2486 Si      1  UNL1        0.0000
      2 C          -0.9105    4.8086    0.3367 C.3     1  UNL1        0.0000
      3 C          -3.9568    4.0621    0.8049 C.3     1  UNL1        0.0000
      4 C          -2.9529    4.4387   -2.0665 C.3     1  UNL1        0.0000
      5 C          -3.2580    6.8666   -0.2234 C.3     1  UNL1        0.0000
      6 H          -0.9096    4.3285    1.3238 H       1  UNL1        0.0000
      7 H          -0.4588    5.7988    0.4730 H       1  UNL1        0.0000
      8 H          -4.9673    4.1864    0.4276 H       1  UNL1        0.0000
      9 H          -3.7254    3.0030    0.7937 H       1  UNL1        0.0000
     10 H          -3.9514    4.3913    1.8390 H       1  UNL1        0.0000
     11 H          -3.7137    3.6649   -2.1181 H       1  UNL1        0.0000
     12 H          -3.2825    5.2522   -2.7069 H       1  UNL1        0.0000
     13 H          -2.0289    4.0348   -2.4855 H       1  UNL1        0.0000
     14 H          -4.2695    6.9798   -0.6007 H       1  UNL1        0.0000
     15 H          -3.2374    7.2719    0.7831 H       1  UNL1        0.0000
     16 H          -2.6077    7.4829   -0.8365 H       1  UNL1        0.0000
@<TRIPOS>BOND
     1    12     4    1
     2    13     4    1
     3    11     4    1
     4     4     1    1
     5    16     5    1
     6    14     5    1
     7     1     5    1
     8     1     2    1
     9     1     3    1
    10     5    15    1
    11     2     7    1
    12     2     6    1
    13     8     3    1
    14     9     3    1
    15     3    10    1
