@<TRIPOS>MOLECULE
3
 29 28 0 0 0
SMALL
GASTEIGER

@<TRIPOS>ATOM
      1 SI          7.3824    2.8806   -0.8764 Si      1  UNL1        0.0000
      2 SI          8.4496    6.3655   -1.8140 Si      1  UNL1        0.0000
      3 C           8.5353    4.0187    0.0932 C.2     1  UNL1        0.0000
      4 C           8.8006    5.2775   -0.3017 C.2     1  UNL1        0.0000
      5 C           5.6403    3.5976   -1.2682 C.3     1  UNL1        0.0000
      6 H           5.5654    4.6311   -0.9483 H       1  UNL1        0.0000
      7 H           4.8535    3.0422   -0.7665 H       1  UNL1        0.0000
      8 H           5.4278    3.5692   -2.3310 H       1  UNL1        0.0000
      9 C           7.0624    1.3366    0.2327 C.3     1  UNL1        0.0000
     10 H           7.5980    1.4283    1.1789 H       1  UNL1        0.0000
     11 H           7.3837    0.4191   -0.2516 H       1  UNL1        0.0000
     12 H           6.0065    1.2139    0.4548 H       1  UNL1        0.0000
     13 C           8.1426    2.2277   -2.5186 C.3     1  UNL1        0.0000
     14 H           7.3920    1.7385   -3.1321 H       1  UNL1        0.0000
     15 H           8.9338    1.5063   -2.3380 H       1  UNL1        0.0000
     16 H           8.5710    3.0371   -3.1004 H       1  UNL1        0.0000
     17 C           7.9215    8.0682   -1.1109 C.3     1  UNL1        0.0000
     18 H           8.6285    8.4270   -0.3691 H       1  UNL1        0.0000
     19 H           6.9463    8.0204   -0.6348 H       1  UNL1        0.0000
     20 H           7.8631    8.8175   -1.8947 H       1  UNL1        0.0000
     21 C           7.1912    5.9172   -3.1766 C.3     1  UNL1        0.0000
     22 H           7.3386    6.5583   -4.0419 H       1  UNL1        0.0000
     23 H           6.1688    6.0548   -2.8426 H       1  UNL1        0.0000
     24 H           7.2937    4.8913   -3.5089 H       1  UNL1        0.0000
     25 C          10.1590    6.5463   -2.6621 C.3     1  UNL1        0.0000
     26 H          10.1584    7.3411   -3.4022 H       1  UNL1        0.0000
     27 H          10.4499    5.6288   -3.1651 H       1  UNL1        0.0000
     28 H          10.9325    6.7747   -1.9353 H       1  UNL1        0.0000
     29 H           9.4609    5.8687    0.3514 H       1  UNL1        0.0000
@<TRIPOS>BOND
     1    22    21    1
     2    24    21    1
     3    26    25    1
     4    21    23    1
     5    21     2    1
     6    27    25    1
     7    14    13    1
     8    16    13    1
     9    25    28    1
    10    25     2    1
    11    13    15    1
    12    13     1    1
    13     8     5    1
    14    20    17    1
    15     2    17    1
    16     2     4    1
    17     5     6    1
    18     5     1    1
    19     5     7    1
    20    17    19    1
    21    17    18    1
    22     1     3    1
    23     1     9    1
    24     4     3    2
    25     4    29    1
    26    11     9    1
    27     9    12    1
    28     9    10    1
