@<TRIPOS>MOLECULE
3
 29 28 0 0 0
SMALL
GASTEIGER

@<TRIPOS>ATOM
      1 SI         12.0196    0.1054    2.3905 Si      1  UNL1        0.0000
      2 SI         10.0665   -1.3744    5.1665 Si      1  UNL1        0.0000
      3 C           9.8084    0.3466    4.4136 C.2     1  UNL1        0.0000
      4 C          10.5400    0.7815    3.3657 C.2     1  UNL1        0.0000
      5 C           9.4009   -2.8377    4.1044 C.3     1  UNL1        0.0000
      6 H           9.4252   -2.6096    3.0455 H       1  UNL1        0.0000
      7 H           8.3797   -3.1016    4.3613 H       1  UNL1        0.0000
      8 H          10.0065   -3.7252    4.2613 H       1  UNL1        0.0000
      9 C           9.0811   -1.4029    6.8200 C.3     1  UNL1        0.0000
     10 H           8.4259   -2.2655    6.8811 H       1  UNL1        0.0000
     11 H           8.4717   -0.5035    6.9172 H       1  UNL1        0.0000
     12 H           9.7424   -1.4625    7.6788 H       1  UNL1        0.0000
     13 C          11.8358   -1.9504    5.6578 C.3     1  UNL1        0.0000
     14 H          12.4475   -2.1494    4.7855 H       1  UNL1        0.0000
     15 H          11.7839   -2.8694    6.2360 H       1  UNL1        0.0000
     16 H          12.3583   -1.2179    6.2635 H       1  UNL1        0.0000
     17 C          13.6408    0.4002    3.3672 C.3     1  UNL1        0.0000
     18 H          13.6479   -0.1282    4.3140 H       1  UNL1        0.0000
     19 H          13.7792    1.4563    3.5812 H       1  UNL1        0.0000
     20 H          14.5048    0.0679    2.7988 H       1  UNL1        0.0000
     21 C          12.1037    1.1942    0.8193 C.3     1  UNL1        0.0000
     22 H          12.9441    0.9216    0.1883 H       1  UNL1        0.0000
     23 H          12.2171    2.2430    1.0765 H       1  UNL1        0.0000
     24 H          11.2025    1.0997    0.2205 H       1  UNL1        0.0000
     25 C          11.9406   -1.7074    1.7931 C.3     1  UNL1        0.0000
     26 H          11.0610   -1.8813    1.1806 H       1  UNL1        0.0000
     27 H          11.9122   -2.4124    2.6150 H       1  UNL1        0.0000
     28 H          12.8101   -1.9439    1.1859 H       1  UNL1        0.0000
     29 H          10.2889    1.7761    2.9651 H       1  UNL1        0.0000
@<TRIPOS>BOND
     1    22    21    1
     2    24    21    1
     3    21    23    1
     4    21     1    1
     5    26    25    1
     6    28    25    1
     7    25     1    1
     8    25    27    1
     9     1     4    1
    10     1    17    1
    11    20    17    1
    12    29     4    1
    13     6     5    1
    14     4     3    2
    15    17    19    1
    16    17    18    1
    17     5     8    1
    18     5     7    1
    19     5     2    1
    20     3     2    1
    21    14    13    1
    22     2    13    1
    23     2     9    1
    24    13    15    1
    25    13    16    1
    26     9    10    1
    27     9    11    1
    28     9    12    1
