@<TRIPOS>MOLECULE
4
 29 28 0 0 0
SMALL
GASTEIGER

@<TRIPOS>ATOM
      1 SI          6.8709   -3.0791   11.1978 Si      1  UNL1        0.0000
      2 SI          6.7702   -1.4492   14.5850 Si      1  UNL1        0.0000
      3 C           7.0682   -1.2779   11.7598 C.2     1  UNL1        0.0000
      4 C           7.1272   -0.6146   12.9289 C.2     1  UNL1        0.0000
      5 C           6.1249   -4.4382   12.3106 C.3     1  UNL1        0.0000
      6 H           5.0615   -4.2939   12.4664 H       1  UNL1        0.0000
      7 H           6.5982   -4.4790   13.2841 H       1  UNL1        0.0000
      8 H           6.2543   -5.4103   11.8420 H       1  UNL1        0.0000
      9 C           5.7953   -2.9970    9.6161 C.3     1  UNL1        0.0000
     10 H           6.2111   -2.2988    8.8959 H       1  UNL1        0.0000
     11 H           4.7805   -2.6763    9.8341 H       1  UNL1        0.0000
     12 H           5.7317   -3.9662    9.1310 H       1  UNL1        0.0000
     13 C           8.6388   -3.6334   10.7108 C.3     1  UNL1        0.0000
     14 H           8.6333   -4.6057   10.2271 H       1  UNL1        0.0000
     15 H           9.2904   -3.7001   11.5770 H       1  UNL1        0.0000
     16 H           9.0869   -2.9267   10.0191 H       1  UNL1        0.0000
     17 C           6.7405   -0.0510   15.9125 C.3     1  UNL1        0.0000
     18 H           7.4985   -0.2032   16.6753 H       1  UNL1        0.0000
     19 H           5.7871   -0.0104   16.4306 H       1  UNL1        0.0000
     20 H           6.9142    0.9211   15.4479 H       1  UNL1        0.0000
     21 C           5.0620   -2.3231   14.7277 C.3     1  UNL1        0.0000
     22 H           4.4185   -1.8333   15.4525 H       1  UNL1        0.0000
     23 H           5.1688   -3.3564   15.0384 H       1  UNL1        0.0000
     24 H           4.5423   -2.3213   13.7761 H       1  UNL1        0.0000
     25 C           8.1292   -2.6952   15.1316 C.3     1  UNL1        0.0000
     26 H           8.3592   -3.3961   14.3360 H       1  UNL1        0.0000
     27 H           7.8126   -3.2680   15.9980 H       1  UNL1        0.0000
     28 H           9.0542   -2.1915   15.3965 H       1  UNL1        0.0000
     29 H           7.2619   -0.6916   10.8477 H       1  UNL1        0.0000
@<TRIPOS>BOND
     1    10     9    1
     2    12     9    1
     3     9    11    1
     4     9     1    1
     5    16    13    1
     6    14    13    1
     7    13     1    1
     8    13    15    1
     9    29     3    1
    10     1     3    1
    11     1     5    1
    12     3     4    2
    13     8     5    1
    14     5     6    1
    15     5     7    1
    16     4     2    1
    17    24    21    1
    18    26    25    1
    19     2    21    1
    20     2    25    1
    21     2    17    1
    22    21    23    1
    23    21    22    1
    24    25    28    1
    25    25    27    1
    26    20    17    1
    27    17    19    1
    28    17    18    1
