@<TRIPOS>MOLECULE
1
 13 13 0 0 0
SMALL
GASTEIGER

@<TRIPOS>ATOM
      1 C           8.4479    1.2317   10.5739 C.1     1  UNL1       -0.0092
      2 C           8.8158    1.0437    9.4269 C.1     1  UNL1       -0.0525
      3 C           9.2493    0.8140    8.0947 C.ar    1  UNL1        0.0259
      4 C          10.0846   -0.2676    7.8045 C.ar    1  UNL1       -0.0463
      5 H          10.3963   -0.9241    8.6058 H       1  UNL1        0.0630
      6 C          10.5064   -0.4957    6.5099 C.ar    1  UNL1       -0.0606
      7 H          11.1521   -1.3358    6.2956 H       1  UNL1        0.0618
      8 C          10.1053    0.3473    5.4854 C.ar    1  UNL1       -0.0617
      9 H          10.4367    0.1661    4.4733 H       1  UNL1        0.0618
     10 C           9.2773    1.4231    5.7638 C.ar    1  UNL1       -0.0606
     11 H           8.9631    2.0820    4.9662 H       1  UNL1        0.0618
     12 C           8.8505    1.6580    7.0559 C.ar    1  UNL1       -0.0463
     13 H           8.2042    2.4981    7.2727 H       1  UNL1        0.0630
@<TRIPOS>BOND
     1     9     8    1
     2    11    10    1
     3     8    10   ar
     4     8     6   ar
     5    10    12   ar
     6     7     6    1
     7     6     4   ar
     8    12    13    1
     9    12     3   ar
    10     4     3   ar
    11     4     5    1
    12     3     2    1
    13     2     1    3
