@<TRIPOS>MOLECULE
1
 15 14 0 0 0
SMALL
GASTEIGER

@<TRIPOS>ATOM
      1 C          11.0411    5.1613    1.8434 C.1     1  UNL1       -0.0143
      2 C          11.7506    6.1400    1.7378 C.1     1  UNL1       -0.0825
      3 C          12.5892    7.3377    1.6073 C.3     1  UNL1        0.0245
      4 C          11.7090    8.5135    1.1612 C.3     1  UNL1       -0.0491
      5 H          11.2394    8.2933    0.2038 H       1  UNL1        0.0244
      6 H          12.3072    9.4176    1.0553 H       1  UNL1        0.0244
      7 H          10.9233    8.7012    1.8912 H       1  UNL1        0.0244
      8 C          13.6804    7.0855    0.5586 C.3     1  UNL1       -0.0491
      9 H          14.3292    6.2693    0.8713 H       1  UNL1        0.0244
     10 H          14.2896    7.9780    0.4225 H       1  UNL1        0.0244
     11 H          13.2340    6.8212   -0.3987 H       1  UNL1        0.0244
     12 C          13.2365    7.6570    2.9615 C.3     1  UNL1       -0.0491
     13 H          12.4729    7.8399    3.7159 H       1  UNL1        0.0244
     14 H          13.8645    8.5432    2.8834 H       1  UNL1        0.0244
     15 H          13.8541    6.8239    3.2935 H       1  UNL1        0.0244
@<TRIPOS>BOND
     1    11     8    1
     2     5     4    1
     3    10     8    1
     4     8     9    1
     5     8     3    1
     6     6     4    1
     7     4     3    1
     8     4     7    1
     9     3     2    1
    10     3    12    1
    11     2     1    3
    12    14    12    1
    13    12    15    1
    14    12    13    1
