@<TRIPOS>MOLECULE
1
 15 14 0 0 0
SMALL
GASTEIGER

@<TRIPOS>ATOM
      1 C           8.8749    3.4296    3.4944 C.1     1  UNL1       -0.0143
      2 C           9.1494    4.2595    2.6523 C.1     1  UNL1       -0.0825
      3 C           9.4784    5.2484    1.6173 C.3     1  UNL1        0.0245
      4 C          10.8575    5.8551    1.9099 C.3     1  UNL1       -0.0491
      5 H          10.8528    6.3802    2.8642 H       1  UNL1        0.0244
      6 H          11.1334    6.5641    1.1304 H       1  UNL1        0.0244
      7 H          11.6145    5.0737    1.9523 H       1  UNL1        0.0244
      8 C           8.4171    6.3574    1.6125 C.3     1  UNL1       -0.0491
      9 H           7.4322    5.9419    1.4057 H       1  UNL1        0.0244
     10 H           8.6462    7.0985    0.8479 H       1  UNL1        0.0244
     11 H           8.3804    6.8590    2.5786 H       1  UNL1        0.0244
     12 C           9.5047    4.5534    0.2496 C.3     1  UNL1       -0.0491
     13 H          10.2369    3.7484    0.2483 H       1  UNL1        0.0244
     14 H           9.7673    5.2644   -0.5328 H       1  UNL1        0.0244
     15 H           8.5295    4.1287    0.0193 H       1  UNL1        0.0244
@<TRIPOS>BOND
     1    14    12    1
     2    15    12    1
     3    13    12    1
     4    12     3    1
     5    10     8    1
     6     6     4    1
     7     9     8    1
     8     8     3    1
     9     8    11    1
    10     3     4    1
    11     3     2    1
    12     4     7    1
    13     4     5    1
    14     2     1    3
