@<TRIPOS>MOLECULE
2
 16 15 0 0 0
SMALL
GASTEIGER

@<TRIPOS>ATOM
      1 SI          1.5755    7.7875    2.2123 Si      1  UNL1        0.0000
      2 C           2.0998    7.0192    3.8437 C.3     1  UNL1        0.0000
      3 C           3.1072    8.4258    1.2485 C.3     1  UNL1        0.0000
      4 C           0.4070    9.3044    2.4026 C.3     1  UNL1        0.0000
      5 C           0.6316    6.5751    1.0575 C.3     1  UNL1        0.0000
      6 H           1.2033    6.7497    4.4279 H       1  UNL1        0.0000
      7 H           2.6050    7.8095    4.4242 H       1  UNL1        0.0000
      8 H           2.8051    8.9503    0.3476 H       1  UNL1        0.0000
      9 H           3.7616    7.6135    0.9464 H       1  UNL1        0.0000
     10 H           3.6877    9.1222    1.8462 H       1  UNL1        0.0000
     11 H           0.1518    9.7427    1.4427 H       1  UNL1        0.0000
     12 H           0.8676   10.0830    3.0033 H       1  UNL1        0.0000
     13 H          -0.5225    9.0265    2.8904 H       1  UNL1        0.0000
     14 H           0.2613    7.1031    0.1842 H       1  UNL1        0.0000
     15 H          -0.2288    6.1360    1.5531 H       1  UNL1        0.0000
     16 H           1.2637    5.7668    0.7006 H       1  UNL1        0.0000
@<TRIPOS>BOND
     1    14     5    1
     2     8     3    1
     3    16     5    1
     4     9     3    1
     5     5    15    1
     6     5     1    1
     7     3    10    1
     8     3     1    1
     9    11     4    1
    10     1     4    1
    11     1     2    1
    12     4    13    1
    13     4    12    1
    14     2     7    1
    15     2     6    1
