@<TRIPOS>MOLECULE
2
 16 15 0 0 0
SMALL
GASTEIGER

@<TRIPOS>ATOM
      1 SI          5.0647    3.2074    1.7622 Si      1  UNL1        0.0000
      2 C           4.1655    4.8519    1.9211 C.3     1  UNL1        0.0000
      3 C           4.4579    1.9776    3.1165 C.3     1  UNL1        0.0000
      4 C           6.9647    3.3865    1.9752 C.3     1  UNL1        0.0000
      5 C           4.8051    2.3188    0.0762 C.3     1  UNL1        0.0000
      6 H           3.3272    4.8841    1.2115 H       1  UNL1        0.0000
      7 H           4.8525    5.6565    1.6199 H       1  UNL1        0.0000
      8 H           5.2937    1.4826    3.6033 H       1  UNL1        0.0000
      9 H           3.8400    1.1927    2.6887 H       1  UNL1        0.0000
     10 H           3.8732    2.4956    3.8832 H       1  UNL1        0.0000
     11 H           7.4669    2.4423    1.7887 H       1  UNL1        0.0000
     12 H           7.2279    3.7041    2.9792 H       1  UNL1        0.0000
     13 H           7.3729    4.1120    1.2785 H       1  UNL1        0.0000
     14 H           3.7495    2.1704   -0.1318 H       1  UNL1        0.0000
     15 H           5.2815    1.3436    0.0582 H       1  UNL1        0.0000
     16 H           5.2184    2.8992   -0.7422 H       1  UNL1        0.0000
@<TRIPOS>BOND
     1    16     5    1
     2    14     5    1
     3    15     5    1
     4     5     1    1
     5     6     2    1
     6    13     4    1
     7     7     2    1
     8     1     2    1
     9     1     4    1
    10     1     3    1
    11    11     4    1
    12     4    12    1
    13     9     3    1
    14     3     8    1
    15     3    10    1
