@<TRIPOS>MOLECULE
1
 4 3 0 0 0
SMALL
GASTEIGER

@<TRIPOS>ATOM
      1 C           1.3502    5.3750   16.8938 C.3     1  UNL1       -0.0681
      2 H           1.2868    5.4548   17.9814 H       1  UNL1        0.0227
      3 H           1.7251    4.3746   16.6804 H       1  UNL1        0.0227
      4 H           2.1279    6.0744   16.5812 H       1  UNL1        0.0227
@<TRIPOS>BOND
     1     4     1    1
     2     3     1    1
     3     1     2    1
