@<TRIPOS>MOLECULE
1
 4 3 0 0 0
SMALL
GASTEIGER

@<TRIPOS>ATOM
      1 C           1.4032    0.0632    1.1192 C.3     1  UNL1       -0.0681
      2 H           0.6225    0.0849    1.8814 H       1  UNL1        0.0227
      3 H           0.9106    0.2951    0.1735 H       1  UNL1        0.0227
      4 H           1.7271   -0.9764    1.0460 H       1  UNL1        0.0227
@<TRIPOS>BOND
     1     3     1    1
     2     4     1    1
     3     1     2    1
