@<TRIPOS>MOLECULE
2
 16 15 0 0 0
SMALL
GASTEIGER

@<TRIPOS>ATOM
      1 SI          2.0032   -1.0105   11.5131 Si      1  UNL1        0.0000
      2 C           3.6297   -1.2950   10.5974 C.3     1  UNL1        0.0000
      3 C           2.2925   -0.6759   13.3802 C.3     1  UNL1        0.0000
      4 C           0.7778   -2.4799   11.4232 C.3     1  UNL1        0.0000
      5 C           1.0908    0.5291   10.8141 C.3     1  UNL1        0.0000
      6 H           3.5458   -2.2061    9.9951 H       1  UNL1        0.0000
      7 H           4.4145   -1.5002   11.3357 H       1  UNL1        0.0000
      8 H           2.8304   -1.4948   13.8467 H       1  UNL1        0.0000
      9 H           1.3531   -0.5578   13.9110 H       1  UNL1        0.0000
     10 H           2.8708    0.2288   13.5380 H       1  UNL1        0.0000
     11 H           0.4869   -2.6875   10.3987 H       1  UNL1        0.0000
     12 H          -0.1296   -2.2772   11.9835 H       1  UNL1        0.0000
     13 H           1.2187   -3.3852   11.8277 H       1  UNL1        0.0000
     14 H           1.8010    1.3102   10.5300 H       1  UNL1        0.0000
     15 H           0.4091    0.9528   11.5461 H       1  UNL1        0.0000
     16 H           0.4990    0.2818    9.9374 H       1  UNL1        0.0000
@<TRIPOS>BOND
     1    16     5    1
     2     6     2    1
     3    11     4    1
     4    14     5    1
     5     2     7    1
     6     2     1    1
     7     5     1    1
     8     5    15    1
     9     4     1    1
    10     4    13    1
    11     4    12    1
    12     1     3    1
    13     3    10    1
    14     3     8    1
    15     3     9    1
