@<TRIPOS>MOLECULE
2
 16 15 0 0 0
SMALL
GASTEIGER

@<TRIPOS>ATOM
      1 SI          1.8137   10.4176    7.9981 Si      1  UNL1        0.0000
      2 C           3.4195   10.1453    8.9347 C.3     1  UNL1        0.0000
      3 C           0.7663   11.9352    8.5364 C.3     1  UNL1        0.0000
      4 C           2.1400   10.6054    6.1206 C.3     1  UNL1        0.0000
      5 C           0.7247    8.8600    8.2349 C.3     1  UNL1        0.0000
      6 H           3.2107   10.1484   10.0113 H       1  UNL1        0.0000
      7 H           4.0959   10.9894    8.7574 H       1  UNL1        0.0000
      8 H           0.5089   11.8788    9.5894 H       1  UNL1        0.0000
      9 H          -0.1610   12.0083    7.9762 H       1  UNL1        0.0000
     10 H           1.3133   12.8606    8.3852 H       1  UNL1        0.0000
     11 H           2.7343   11.4884    5.9054 H       1  UNL1        0.0000
     12 H           1.2131   10.6954    5.5622 H       1  UNL1        0.0000
     13 H           2.6755    9.7393    5.7432 H       1  UNL1        0.0000
     14 H           1.2834    7.9707    7.9439 H       1  UNL1        0.0000
     15 H          -0.1802    8.8990    7.6366 H       1  UNL1        0.0000
     16 H           0.4229    8.7454    9.2721 H       1  UNL1        0.0000
@<TRIPOS>BOND
     1    12     4    1
     2    13     4    1
     3    11     4    1
     4     4     1    1
     5    15     5    1
     6    14     5    1
     7     9     3    1
     8     1     5    1
     9     1     3    1
    10     1     2    1
    11     5    16    1
    12    10     3    1
    13     3     8    1
    14     7     2    1
    15     2     6    1
