@<TRIPOS>MOLECULE
2
 16 15 0 0 0
SMALL
GASTEIGER

@<TRIPOS>ATOM
      1 SI          7.0558    8.2618   11.0550 Si      1  UNL1        0.0000
      2 C           6.2186    7.2180    9.7292 C.3     1  UNL1        0.0000
      3 C           8.9138    8.5704   10.6853 C.3     1  UNL1        0.0000
      4 C           6.9913    7.4211   12.7816 C.3     1  UNL1        0.0000
      5 C           6.2388    9.9815   11.2864 C.3     1  UNL1        0.0000
      6 H           5.7815    6.3500   10.2334 H       1  UNL1        0.0000
      7 H           6.9954    6.8119    9.0680 H       1  UNL1        0.0000
      8 H           9.4645    7.6360   10.6433 H       1  UNL1        0.0000
      9 H           9.3746    9.1870   11.4506 H       1  UNL1        0.0000
     10 H           9.0565    9.0746    9.7343 H       1  UNL1        0.0000
     11 H           5.9661    7.2385   13.0914 H       1  UNL1        0.0000
     12 H           7.4565    8.0356   13.5461 H       1  UNL1        0.0000
     13 H           7.5043    6.4644   12.7749 H       1  UNL1        0.0000
     14 H           6.1591   10.5163   10.3439 H       1  UNL1        0.0000
     15 H           6.8097   10.6027   11.9709 H       1  UNL1        0.0000
     16 H           5.2363    9.8890   11.6956 H       1  UNL1        0.0000
@<TRIPOS>BOND
     1     7     2    1
     2     2     6    1
     3     2     1    1
     4    10     3    1
     5    14     5    1
     6     8     3    1
     7     3     1    1
     8     3     9    1
     9     1     5    1
    10     1     4    1
    11     5    16    1
    12     5    15    1
    13    13     4    1
    14     4    11    1
    15     4    12    1
