@<TRIPOS>MOLECULE
2
 16 15 0 0 0
SMALL
GASTEIGER

@<TRIPOS>ATOM
      1 SI          7.1765   -1.3879    7.9863 Si      1  UNL1        0.0000
      2 C           6.6492    0.3098    8.6192 C.3     1  UNL1        0.0000
      3 C           8.9006   -1.4265    7.1467 C.3     1  UNL1        0.0000
      4 C           7.2273   -2.6155    9.4557 C.3     1  UNL1        0.0000
      5 C           5.9023   -2.0250    6.6960 C.3     1  UNL1        0.0000
      6 H           6.8535    1.0566    7.8427 H       1  UNL1        0.0000
      7 H           7.2799    0.5807    9.4748 H       1  UNL1        0.0000
      8 H           8.9347   -0.7559    6.2936 H       1  UNL1        0.0000
      9 H           9.1488   -2.4215    6.7903 H       1  UNL1        0.0000
     10 H           9.6826   -1.1204    7.8342 H       1  UNL1        0.0000
     11 H           7.9722   -2.3214   10.1882 H       1  UNL1        0.0000
     12 H           7.4787   -3.6171    9.1226 H       1  UNL1        0.0000
     13 H           6.2676   -2.6662    9.9614 H       1  UNL1        0.0000
     14 H           5.5964   -3.0437    6.9133 H       1  UNL1        0.0000
     15 H           6.3169   -2.0240    5.6931 H       1  UNL1        0.0000
     16 H           5.0046   -1.4050    6.6780 H       1  UNL1        0.0000
@<TRIPOS>BOND
     1    15     5    1
     2     8     3    1
     3    16     5    1
     4     5    14    1
     5     5     1    1
     6     9     3    1
     7     3    10    1
     8     3     1    1
     9     6     2    1
    10     1     2    1
    11     1     4    1
    12     2     7    1
    13    12     4    1
    14     4    13    1
    15     4    11    1
