@<TRIPOS>MOLECULE
1
 16 15 0 0 0
SMALL
GASTEIGER

@<TRIPOS>ATOM
      1 C           2.8671    4.3666    3.2740 C.3     1  UNL1        0.0000
      2 H           2.1928    4.0054    4.0696 H       1  UNL1        0.0000
      3 H           3.8227    4.5648    3.7843 H       1  UNL1        0.0000
      4 SI          2.1953    6.0414    2.7291 Si      1  UNL1        0.0000
      5 C           0.6969    5.7916    1.5475 C.3     1  UNL1        0.0000
      6 H           0.7417    4.8203    1.0584 H       1  UNL1        0.0000
      7 H           0.6532    6.5539    0.7749 H       1  UNL1        0.0000
      8 H          -0.2396    5.8404    2.0947 H       1  UNL1        0.0000
      9 C           3.5277    7.0647    1.8030 C.3     1  UNL1        0.0000
     10 H           4.3067    7.3823    2.4882 H       1  UNL1        0.0000
     11 H           3.1020    7.9587    1.3572 H       1  UNL1        0.0000
     12 H           4.0076    6.4991    1.0104 H       1  UNL1        0.0000
     13 C           1.5755    7.1594    4.1585 C.3     1  UNL1        0.0000
     14 H           0.7996    6.6643    4.7352 H       1  UNL1        0.0000
     15 H           1.1628    8.0944    3.7907 H       1  UNL1        0.0000
     16 H           2.3820    7.4044    4.8429 H       1  UNL1        0.0000
@<TRIPOS>BOND
     1     7     5    1
     2    12     9    1
     3     6     5    1
     4    11     9    1
     5     5     8    1
     6     5     4    1
     7     9    10    1
     8     9     4    1
     9     4     1    1
    10     4    13    1
    11     1     3    1
    12     1     2    1
    13    15    13    1
    14    13    14    1
    15    13    16    1
