@<TRIPOS>MOLECULE
1
 16 15 0 0 0
SMALL
GASTEIGER

@<TRIPOS>ATOM
      1 C           5.2225    1.7280    2.4728 C.3     1  UNL1        0.0000
      2 H           5.0947    1.0153    3.3045 H       1  UNL1        0.0000
      3 H           5.4999    1.1131    1.5993 H       1  UNL1        0.0000
      4 SI          6.6767    2.8443    2.9182 Si      1  UNL1        0.0000
      5 C           6.6056    4.4810    1.9123 C.3     1  UNL1        0.0000
      6 H           7.1095    4.3920    0.9538 H       1  UNL1        0.0000
      7 H           7.0872    5.2921    2.4486 H       1  UNL1        0.0000
      8 H           5.5723    4.7731    1.7312 H       1  UNL1        0.0000
      9 C           6.6260    3.2751    4.7817 C.3     1  UNL1        0.0000
     10 H           5.6624    3.6881    5.0637 H       1  UNL1        0.0000
     11 H           7.3867    4.0037    5.0433 H       1  UNL1        0.0000
     12 H           6.7958    2.3938    5.3921 H       1  UNL1        0.0000
     13 C           8.4013    2.0743    2.5620 C.3     1  UNL1        0.0000
     14 H           8.5591    1.1753    3.1496 H       1  UNL1        0.0000
     15 H           9.2043    2.7651    2.8001 H       1  UNL1        0.0000
     16 H           8.5064    1.8008    1.5157 H       1  UNL1        0.0000
@<TRIPOS>BOND
     1     6     5    1
     2    16    13    1
     3     3     1    1
     4     8     5    1
     5     5     7    1
     6     5     4    1
     7     1     4    1
     8     1     2    1
     9    13    15    1
    10    13     4    1
    11    13    14    1
    12     4     9    1
    13     9    11    1
    14     9    10    1
    15     9    12    1
