@<TRIPOS>MOLECULE
2
 15 14 0 0 0
SMALL
GASTEIGER

@<TRIPOS>ATOM
      1 N           8.3405    8.0429    5.1827 N.3     1  UNL1       -0.2219
      2 C           7.5356    7.6792    5.9410 C.3     1  UNL1        0.1072
      3 C           9.2938    8.4346    4.2184 C.3     1  UNL1        0.0290
      4 C           9.0074    9.8932    3.8440 C.3     1  UNL1       -0.0458
      5 C           9.1365    7.5205    2.9995 C.3     1  UNL1       -0.0458
      6 C          10.6905    8.2940    4.8268 C.3     1  UNL1       -0.0458
      7 H           9.0548   10.5325    4.7226 H       1  UNL1        0.0248
      8 H           8.0211    9.9901    3.3951 H       1  UNL1        0.0248
      9 H           9.7485   10.2349    3.1270 H       1  UNL1        0.0248
     10 H           9.3832    6.4943    3.2568 H       1  UNL1        0.0248
     11 H           9.8099    7.8491    2.2130 H       1  UNL1        0.0248
     12 H           8.1161    7.5540    2.6226 H       1  UNL1        0.0248
     13 H          10.8689    7.2735    5.1523 H       1  UNL1        0.0248
     14 H          10.8106    8.9588    5.6791 H       1  UNL1        0.0248
     15 H          11.4352    8.5510    4.0792 H       1  UNL1        0.0248
@<TRIPOS>BOND
     1    11     5    1
     2    12     5    1
     3     5    10    1
     4     5     3    1
     5     9     4    1
     6     8     4    1
     7     4     3    1
     8     4     7    1
     9    15     6    1
    10     3     6    1
    11     3     1    1
    12     6    13    1
    13     6    14    1
    14     1     2    1
