@<TRIPOS>MOLECULE
1
 22 22 0 0 0
SMALL
GASTEIGER

@<TRIPOS>ATOM
      1 C          -0.9172   18.6721    3.9892 C.3     1  UNL1       -0.0241
      2 H          -0.7876   19.2520    4.9172 H       1  UNL1        0.0315
      3 C          -2.2458   19.0306    3.3855 C.3     1  UNL1       -0.0065
      4 C          -2.4895   20.5505    3.5113 C.3     1  UNL1       -0.0555
      5 H          -3.4384   20.8176    3.0491 H       1  UNL1        0.0238
      6 H          -1.6994   21.1080    3.0145 H       1  UNL1        0.0238
      7 H          -2.5187   20.8461    4.5586 H       1  UNL1        0.0238
      8 C          -3.3441   18.3143    4.1903 C.3     1  UNL1       -0.0555
      9 H          -3.2452   17.2377    4.0792 H       1  UNL1        0.0238
     10 H          -4.3351   18.6287    3.8698 H       1  UNL1        0.0238
     11 H          -3.2406   18.5625    5.2440 H       1  UNL1        0.0238
     12 C          -2.3037   18.7108    1.9010 C.ar    1  UNL1       -0.0414
     13 C          -3.3980   18.0968    1.3022 C.ar    1  UNL1       -0.0580
     14 H          -4.2245   17.7400    1.8967 H       1  UNL1        0.0620
     15 C          -3.4661   17.9376   -0.0729 C.ar    1  UNL1       -0.0615
     16 H          -4.3289   17.4563   -0.5123 H       1  UNL1        0.0618
     17 C          -2.4455   18.4005   -0.8826 C.ar    1  UNL1       -0.0617
     18 H          -2.5041   18.2860   -1.9551 H       1  UNL1        0.0618
     19 C          -1.3492   19.0156   -0.3006 C.ar    1  UNL1       -0.0615
     20 H          -0.5498   19.3913   -0.9228 H       1  UNL1        0.0618
     21 C          -1.2786   19.1643    1.0727 C.ar    1  UNL1       -0.0580
     22 H          -0.4243   19.6665    1.5053 H       1  UNL1        0.0620
@<TRIPOS>BOND
     1    18    17    1
     2    20    19    1
     3    17    19   ar
     4    17    15   ar
     5    16    15    1
     6    19    21   ar
     7    15    13   ar
     8    21    22    1
     9    21    12   ar
    10    13    14    1
    11    13    12   ar
    12    12     3    1
    13     6     4    1
    14     5     4    1
    15     3     4    1
    16     3     1    1
    17     3     8    1
    18     4     7    1
    19    10     8    1
    20     1     2    1
    21     9     8    1
    22     8    11    1
