@<TRIPOS>MOLECULE
5
 25 25 0 0 0
SMALL
GASTEIGER

@<TRIPOS>ATOM
      1 C           1.5825    3.1447    3.8725 C.3     1  UNL1        0.0052
      2 C           1.0863    2.9638    5.1894 C.2     1  UNL1       -0.0658
      3 C           2.1178    2.4227    5.9859 C.2     1  UNL1       -0.0658
      4 C           3.2628    2.2365    5.1694 C.3     1  UNL1        0.0052
      5 C           2.9375    2.6908    3.8459 C.3     1  UNL1       -0.0053
      6 C           0.9295    4.0884    2.8950 C.3     1  UNL1       -0.0545
      7 H           1.5254    4.2178    1.9962 H       1  UNL1        0.0239
      8 H           0.8305    5.0686    3.3682 H       1  UNL1        0.0239
      9 H          -0.0706    3.7730    2.6013 H       1  UNL1        0.0239
     10 C          -0.2167    3.5015    5.7068 C.3     1  UNL1       -0.0430
     11 H          -0.6062    2.8778    6.5092 H       1  UNL1        0.0275
     12 H          -0.9665    3.5624    4.9196 H       1  UNL1        0.0275
     13 H          -0.0727    4.5092    6.1049 H       1  UNL1        0.0275
     14 C           2.1005    2.3013    7.4816 C.3     1  UNL1       -0.0430
     15 H           1.1098    2.0416    7.8476 H       1  UNL1        0.0275
     16 H           2.3847    3.2562    7.9319 H       1  UNL1        0.0275
     17 H           2.8045    1.5457    7.8254 H       1  UNL1        0.0275
     18 C           4.6333    1.9597    5.7278 C.3     1  UNL1       -0.0545
     19 H           5.3774    1.9169    4.9387 H       1  UNL1        0.0239
     20 H           4.6618    1.0187    6.2806 H       1  UNL1        0.0239
     21 H           4.9135    2.7600    6.4180 H       1  UNL1        0.0239
     22 C           3.9391    2.9393    2.7456 C.3     1  UNL1       -0.0574
     23 H           3.5646    3.6877    2.0482 H       1  UNL1        0.0236
     24 H           4.1805    2.0304    2.1902 H       1  UNL1        0.0236
     25 H           4.8642    3.3332    3.1679 H       1  UNL1        0.0236
@<TRIPOS>BOND
     1     7     6    1
     2    23    22    1
     3    24    22    1
     4     9     6    1
     5    22    25    1
     6    22     5    1
     7     6     8    1
     8     6     1    1
     9     5     1    1
    10     5     4    1
    11     1     2    1
    12    12    10    1
    13    19    18    1
    14     4    18    1
    15     4     3    1
    16     2    10    1
    17     2     3    2
    18    10    13    1
    19    10    11    1
    20    18    20    1
    21    18    21    1
    22     3    14    1
    23    14    17    1
    24    14    15    1
    25    14    16    1
