@<TRIPOS>MOLECULE
5
 29 28 0 0 0
SMALL
GASTEIGER

@<TRIPOS>ATOM
      1 SI          5.6100   -0.8217    3.8117 Si      1  UNL1        0.0000
      2 SI          3.8545   -3.0216    6.1862 Si      1  UNL1        0.0000
      3 C           3.2235   -1.6503    5.0245 C.3     1  UNL1        0.0000
      4 H           2.1228   -1.6495    5.0959 H       1  UNL1        0.0000
      5 C           3.7629   -0.6770    4.2551 C.3     1  UNL1        0.0000
      6 C           2.3075   -4.0909    6.5414 C.3     1  UNL1        0.0000
      7 H           1.9983   -4.6568    5.6670 H       1  UNL1        0.0000
      8 H           1.4653   -3.4788    6.8529 H       1  UNL1        0.0000
      9 H           2.4999   -4.8066    7.3351 H       1  UNL1        0.0000
     10 C           4.4022   -2.2004    7.8363 C.3     1  UNL1        0.0000
     11 H           4.6968   -1.1632    7.7012 H       1  UNL1        0.0000
     12 H           5.2442   -2.7235    8.2802 H       1  UNL1        0.0000
     13 H           3.5947   -2.2148    8.5626 H       1  UNL1        0.0000
     14 C           5.2260   -4.2288    5.6327 C.3     1  UNL1        0.0000
     15 H           6.1513   -3.7237    5.3856 H       1  UNL1        0.0000
     16 H           4.9246   -4.8119    4.7686 H       1  UNL1        0.0000
     17 H           5.4368   -4.9295    6.4362 H       1  UNL1        0.0000
     18 C           5.9005   -2.4483    2.8157 C.3     1  UNL1        0.0000
     19 H           5.9350   -2.2633    1.7458 H       1  UNL1        0.0000
     20 H           5.1265   -3.1847    2.9999 H       1  UNL1        0.0000
     21 H           6.8484   -2.9018    3.0873 H       1  UNL1        0.0000
     22 C           6.8496   -0.8406    5.2820 C.3     1  UNL1        0.0000
     23 H           7.0377    0.1578    5.6638 H       1  UNL1        0.0000
     24 H           7.8058   -1.2476    4.9656 H       1  UNL1        0.0000
     25 H           6.4939   -1.4453    6.1074 H       1  UNL1        0.0000
     26 C           6.3703    0.4909    2.6272 C.3     1  UNL1        0.0000
     27 H           6.4676    1.4748    3.0710 H       1  UNL1        0.0000
     28 H           5.8214    0.5936    1.6976 H       1  UNL1        0.0000
     29 H           7.3731    0.1651    2.3650 H       1  UNL1        0.0000
@<TRIPOS>BOND
     1    28    26    1
     2    19    18    1
     3    29    26    1
     4    26    27    1
     5    26     1    1
     6    18    20    1
     7    18    21    1
     8    18     1    1
     9     1     5    1
    10     1    22    1
    11     5     3    1
    12    16    14    1
    13    24    22    1
    14     3     4    1
    15     3     2    1
    16    22    23    1
    17    22    25    1
    18    15    14    1
    19    14     2    1
    20    14    17    1
    21     7     6    1
    22     2     6    1
    23     2    10    1
    24     6     8    1
    25     6     9    1
    26    11    10    1
    27    10    12    1
    28    10    13    1
