@<TRIPOS>MOLECULE
1
 25 25 0 0 0
SMALL
GASTEIGER

@<TRIPOS>ATOM
      1 C           6.6543    3.6419    2.6803 C.3     1  UNL1       -0.0053
      2 C           7.2811    2.5352    2.0400 C.3     1  UNL1        0.0052
      3 C           6.5082    1.3793    2.3279 C.2     1  UNL1       -0.0658
      4 C           5.4110    1.7685    3.1398 C.2     1  UNL1       -0.0658
      5 C           5.4977    3.1681    3.3615 C.3     1  UNL1        0.0052
      6 C           7.0181    5.0812    2.4856 C.3     1  UNL1       -0.0574
      7 C           8.3955    2.6665    1.0435 C.3     1  UNL1       -0.0545
      8 C           6.6489    0.0234    1.7015 C.3     1  UNL1       -0.0430
      9 C           4.2480    0.8776    3.4621 C.3     1  UNL1       -0.0430
     10 C           4.4625    4.0641    3.9754 C.3     1  UNL1       -0.0545
     11 H           6.7356    5.6742    3.3552 H       1  UNL1        0.0236
     12 H           6.4958    5.4851    1.6117 H       1  UNL1        0.0236
     13 H           8.0899    5.1944    2.3251 H       1  UNL1        0.0236
     14 H           9.2801    3.1235    1.4916 H       1  UNL1        0.0239
     15 H           8.0736    3.3058    0.2171 H       1  UNL1        0.0239
     16 H           8.6742    1.7001    0.6274 H       1  UNL1        0.0239
     17 H           5.9839   -0.0537    0.8359 H       1  UNL1        0.0275
     18 H           6.3739   -0.7649    2.4028 H       1  UNL1        0.0275
     19 H           7.6664   -0.1563    1.3572 H       1  UNL1        0.0275
     20 H           4.5772   -0.1398    3.6730 H       1  UNL1        0.0275
     21 H           3.5688    0.8365    2.6051 H       1  UNL1        0.0275
     22 H           3.6828    1.2449    4.3173 H       1  UNL1        0.0275
     23 H           4.0621    4.7376    3.2131 H       1  UNL1        0.0239
     24 H           4.8897    4.6787    4.7704 H       1  UNL1        0.0239
     25 H           3.6321    3.4920    4.3848 H       1  UNL1        0.0239
@<TRIPOS>BOND
     1    15     7    1
     2    16     7    1
     3    17     8    1
     4     7    14    1
     5     7     2    1
     6    19     8    1
     7    12     6    1
     8     8     3    1
     9     8    18    1
    10     2     3    1
    11     2     1    1
    12    13     6    1
    13     3     4    2
    14     6     1    1
    15     6    11    1
    16    21     9    1
    17     1     5    1
    18     4     5    1
    19     4     9    1
    20    23    10    1
    21     5    10    1
    22     9    20    1
    23     9    22    1
    24    10    25    1
    25    10    24    1
