@<TRIPOS>MOLECULE
1
 13 13 0 0 0
SMALL
GASTEIGER

@<TRIPOS>ATOM
      1 C          11.3146   16.5313   16.6282 C.1     1  UNL1       -0.0090
      2 C          11.3632   17.2633   17.6012 C.1     1  UNL1       -0.0465
      3 C          11.3527   18.0879   18.7463 C.ar    1  UNL1        0.1020
      4 C          10.3968   19.1022   18.8913 C.ar    1  UNL1        0.1795
      5 C          10.3597   19.9158   20.0126 C.ar    1  UNL1        0.1976
      6 C          11.2903   19.7329   21.0323 C.ar    1  UNL1        0.1991
      7 C          12.2492   18.7303   20.9159 C.ar    1  UNL1        0.1976
      8 C          12.2736   17.9229   19.7888 C.ar    1  UNL1        0.1795
      9 F           9.4926   19.2892   17.9184 F       1  UNL1       -0.2010
     10 F           9.4343   20.8775   20.1232 F       1  UNL1       -0.1993
     11 F          11.2619   20.5150   22.1180 F       1  UNL1       -0.1993
     12 F          13.1431   18.5506   21.8968 F       1  UNL1       -0.1993
     13 F          13.2015   16.9606   19.6991 F       1  UNL1       -0.2010
@<TRIPOS>BOND
     1     1     2    3
     2     2     3    1
     3     9     4    1
     4     3     4   ar
     5     3     8   ar
     6     4     5   ar
     7    13     8    1
     8     8     7   ar
     9     5    10    1
    10     5     6   ar
    11     7     6   ar
    12     7    12    1
    13     6    11    1
