@<TRIPOS>MOLECULE
2
 16 15 0 0 0
SMALL
GASTEIGER

@<TRIPOS>ATOM
      1 SI         18.8889   15.6345   10.8106 Si      1  UNL1        0.0000
      2 C          18.6155   14.9693    9.0738 C.3     1  UNL1        0.0000
      3 H          19.1505   14.0130    8.9855 H       1  UNL1        0.0000
      4 H          19.1429   15.6506    8.3910 H       1  UNL1        0.0000
      5 C          18.1373   17.3906   10.9498 C.3     1  UNL1        0.0000
      6 H          18.7465   18.1202   10.4252 H       1  UNL1        0.0000
      7 H          18.0511   17.7142   11.9824 H       1  UNL1        0.0000
      8 H          17.1407   17.4149   10.5150 H       1  UNL1        0.0000
      9 C          18.0969   14.4979   12.1358 C.3     1  UNL1        0.0000
     10 H          17.1933   14.0323   11.7563 H       1  UNL1        0.0000
     11 H          17.8303   15.0551   13.0284 H       1  UNL1        0.0000
     12 H          18.7802   13.7085   12.4348 H       1  UNL1        0.0000
     13 C          20.7319   15.8147   11.3231 C.3     1  UNL1        0.0000
     14 H          21.2451   14.8584   11.2881 H       1  UNL1        0.0000
     15 H          20.8342   16.2039   12.3317 H       1  UNL1        0.0000
     16 H          21.2603   16.4899   10.6571 H       1  UNL1        0.0000
@<TRIPOS>BOND
     1     4     2    1
     2     3     2    1
     3     2     1    1
     4     6     5    1
     5     8     5    1
     6    16    13    1
     7     1     5    1
     8     1    13    1
     9     1     9    1
    10     5     7    1
    11    14    13    1
    12    13    15    1
    13    10     9    1
    14     9    12    1
    15     9    11    1
