@<TRIPOS>MOLECULE
2
 16 15 0 0 0
SMALL
GASTEIGER

@<TRIPOS>ATOM
      1 SI         -6.4694    3.4037   14.4028 Si      1  UNL1        0.0000
      2 C          -4.6306    3.0436   14.5374 C.3     1  UNL1        0.0000
      3 H          -4.2639    3.3885   15.5135 H       1  UNL1        0.0000
      4 H          -4.1014    3.6459   13.7836 H       1  UNL1        0.0000
      5 C          -7.2972    2.3007   13.0675 C.3     1  UNL1        0.0000
      6 H          -6.9532    2.5854   12.0776 H       1  UNL1        0.0000
      7 H          -8.3807    2.3877   13.0723 H       1  UNL1        0.0000
      8 H          -7.0410    1.2512   13.2120 H       1  UNL1        0.0000
      9 C          -6.8962    5.2141   13.9179 C.3     1  UNL1        0.0000
     10 H          -6.5377    5.9145   14.6654 H       1  UNL1        0.0000
     11 H          -7.9662    5.3653   13.8137 H       1  UNL1        0.0000
     12 H          -6.4334    5.4818   12.9730 H       1  UNL1        0.0000
     13 C          -7.3635    3.0831   16.0704 C.3     1  UNL1        0.0000
     14 H          -7.1762    2.0746   16.4325 H       1  UNL1        0.0000
     15 H          -8.4384    3.2113   15.9832 H       1  UNL1        0.0000
     16 H          -7.0158    3.7687   16.8363 H       1  UNL1        0.0000
@<TRIPOS>BOND
     1     6     5    1
     2    12     9    1
     3     5     7    1
     4     5     8    1
     5     5     1    1
     6     4     2    1
     7    11     9    1
     8     9     1    1
     9     9    10    1
    10     1     2    1
    11     1    13    1
    12     2     3    1
    13    15    13    1
    14    13    14    1
    15    13    16    1
