@<TRIPOS>MOLECULE
1
 13 13 0 0 0
SMALL
GASTEIGER

@<TRIPOS>ATOM
      1 C           9.9848   10.4244    2.8115 C.3     1  UNL1       -0.0011
      2 C           9.7843   11.8079    3.0120 C.ar    1  UNL1       -0.0431
      3 C          10.2248   12.7725    2.0700 C.ar    1  UNL1       -0.0583
      4 C          10.0338   14.1191    2.2704 C.ar    1  UNL1       -0.0615
      5 C           9.3988   14.5843    3.4160 C.ar    1  UNL1       -0.0617
      6 C           8.9494   13.6660    4.3559 C.ar    1  UNL1       -0.0615
      7 C           9.1304   12.3166    4.1627 C.ar    1  UNL1       -0.0583
      8 H           9.5017    9.8150    3.5964 H       1  UNL1        0.0361
      9 H          10.7083   12.4259    1.1619 H       1  UNL1        0.0620
     10 H          10.3805   14.8233    1.5249 H       1  UNL1        0.0618
     11 H           9.2526   15.6431    3.5703 H       1  UNL1        0.0618
     12 H           8.4494   14.0166    5.2495 H       1  UNL1        0.0618
     13 H           8.7710   11.6151    4.9062 H       1  UNL1        0.0620
@<TRIPOS>BOND
     1     9     3    1
     2    10     4    1
     3     3     4   ar
     4     3     2   ar
     5     4     5   ar
     6     1     2    1
     7     1     8    1
     8     2     7   ar
     9     5    11    1
    10     5     6   ar
    11     7     6   ar
    12     7    13    1
    13     6    12    1
