@<TRIPOS>MOLECULE
1
 16 15 0 0 0
SMALL
GASTEIGER

@<TRIPOS>ATOM
      1 C          10.5741    7.3724    1.6901 C.3     1  UNL1        0.0000
      2 SI          9.7280    6.7332    3.2420 Si      1  UNL1        0.0000
      3 C           7.8823    7.2577    3.2221 C.3     1  UNL1        0.0000
      4 C           9.7469    4.8189    3.4271 C.3     1  UNL1        0.0000
      5 C          10.5540    7.4213    4.8366 C.3     1  UNL1        0.0000
      6 H          11.5516    6.8809    1.5653 H       1  UNL1        0.0000
      7 H           9.9638    7.0868    0.8177 H       1  UNL1        0.0000
      8 H           7.7797    8.3081    2.9600 H       1  UNL1        0.0000
      9 H           7.3155    6.6745    2.5019 H       1  UNL1        0.0000
     10 H           7.4173    7.1097    4.1919 H       1  UNL1        0.0000
     11 H           9.2370    4.3367    2.5988 H       1  UNL1        0.0000
     12 H           9.2543    4.5037    4.3415 H       1  UNL1        0.0000
     13 H          10.7620    4.4333    3.4531 H       1  UNL1        0.0000
     14 H          11.0991    8.3394    4.6200 H       1  UNL1        0.0000
     15 H          11.2450    6.7046    5.2718 H       1  UNL1        0.0000
     16 H           9.8123    7.6486    5.5965 H       1  UNL1        0.0000
@<TRIPOS>BOND
     1     7     1    1
     2     6     1    1
     3     1     2    1
     4     9     3    1
     5    11     4    1
     6     8     3    1
     7     3     2    1
     8     3    10    1
     9     2     4    1
    10     2     5    1
    11     4    13    1
    12     4    12    1
    13    14     5    1
    14     5    15    1
    15     5    16    1
