@<TRIPOS>MOLECULE
1
 26 25 0 0 0
SMALL
GASTEIGER

@<TRIPOS>ATOM
      1 C          10.4182    3.9507    1.5538 C.3     1  UNL1        0.0000
      2 SI          8.7257    4.7221    1.5352 Si      1  UNL1        0.0000
      3 C           7.2701    3.4847    1.4575 C.3     1  UNL1        0.0000
      4 C           8.3721    6.0100    0.1606 C.3     1  UNL1        0.0000
      5 O           8.6401    5.4754    3.0617 O.3     1  UNL1        0.0000
      6 SI          7.4817    6.4363    3.7107 Si      1  UNL1        0.0000
      7 C           5.8379    5.4840    3.9303 C.3     1  UNL1        0.0000
      8 C           8.0763    7.0782    5.3996 C.3     1  UNL1        0.0000
      9 C           7.0881    7.9731    2.6463 C.3     1  UNL1        0.0000
     10 H          11.1405    4.5550    0.9908 H       1  UNL1        0.0000
     11 H          10.4020    2.9658    1.0713 H       1  UNL1        0.0000
     12 H           7.2392    2.8655    2.3484 H       1  UNL1        0.0000
     13 H           7.3699    2.8273    0.6001 H       1  UNL1        0.0000
     14 H           6.3142    3.9907    1.3702 H       1  UNL1        0.0000
     15 H           8.5849    5.5712   -0.8091 H       1  UNL1        0.0000
     16 H           7.3355    6.3291    0.1512 H       1  UNL1        0.0000
     17 H           8.9885    6.8980    0.2544 H       1  UNL1        0.0000
     18 H           5.9926    4.4410    4.1835 H       1  UNL1        0.0000
     19 H           5.2395    5.5134    3.0244 H       1  UNL1        0.0000
     20 H           5.2414    5.9280    4.7214 H       1  UNL1        0.0000
     21 H           8.4463    6.2993    6.0564 H       1  UNL1        0.0000
     22 H           8.8682    7.8137    5.3030 H       1  UNL1        0.0000
     23 H           7.2474    7.5638    5.9055 H       1  UNL1        0.0000
     24 H           7.9809    8.4572    2.2651 H       1  UNL1        0.0000
     25 H           6.4595    7.7306    1.7957 H       1  UNL1        0.0000
     26 H           6.5511    8.7055    3.2417 H       1  UNL1        0.0000
@<TRIPOS>BOND
     1    15     4    1
     2    16     4    1
     3     4    17    1
     4     4     2    1
     5    13     3    1
     6    10     1    1
     7    11     1    1
     8    14     3    1
     9     3     2    1
    10     3    12    1
    11     2     1    1
    12     2     5    1
    13    25     9    1
    14    24     9    1
    15     9    26    1
    16     9     6    1
    17    19     7    1
    18     5     6    1
    19     6     7    1
    20     6     8    1
    21     7    18    1
    22     7    20    1
    23    22     8    1
    24     8    23    1
    25     8    21    1
