@<TRIPOS>MOLECULE
1
 25 24 0 0 0
SMALL
GASTEIGER

@<TRIPOS>ATOM
      1 C          12.4092    2.5956    3.4708 C.3     1  UNL1        0.0000
      2 SI         13.6060    2.2516    2.1113 Si      1  UNL1        0.0000
      3 C          14.1941    3.8301    1.1909 C.3     1  UNL1        0.0000
      4 C          13.1059    0.9912    0.7423 C.3     1  UNL1        0.0000
      5 O          15.0196    1.6081    2.7242 O.3     1  UNL1        0.0000
      6 SI         15.7214    0.5963    3.7662 Si      1  UNL1        0.0000
      7 C          17.0120   -0.4152    2.7939 C.3     1  UNL1        0.0000
      8 C          14.4547   -0.5833    4.5717 C.3     1  UNL1        0.0000
      9 C          16.5676    1.6127    5.1422 C.3     1  UNL1        0.0000
     10 H          12.6199    1.9988    4.3666 H       1  UNL1        0.0000
     11 H          15.1912    4.1244    1.5005 H       1  UNL1        0.0000
     12 H          13.5095    4.6466    1.4072 H       1  UNL1        0.0000
     13 H          14.2132    3.6883    0.1155 H       1  UNL1        0.0000
     14 H          12.1674    1.2706    0.2717 H       1  UNL1        0.0000
     15 H          13.8629    0.9400   -0.0351 H       1  UNL1        0.0000
     16 H          12.9926   -0.0089    1.1489 H       1  UNL1        0.0000
     17 H          17.7384    0.2339    2.3157 H       1  UNL1        0.0000
     18 H          17.5545   -1.0945    3.4437 H       1  UNL1        0.0000
     19 H          13.8731   -1.1003    3.8147 H       1  UNL1        0.0000
     20 H          14.9353   -1.3351    5.1901 H       1  UNL1        0.0000
     21 H          13.7593   -0.0353    5.2019 H       1  UNL1        0.0000
     22 H          17.2214    0.9923    5.7473 H       1  UNL1        0.0000
     23 H          17.1691    2.4137    4.7243 H       1  UNL1        0.0000
     24 H          16.5416   -1.0070    2.0150 H       1  UNL1        0.0000
     25 H          15.8331    2.0612    5.8039 H       1  UNL1        0.0000
@<TRIPOS>BOND
     1    15     4    1
     2    13     3    1
     3    14     4    1
     4     4    16    1
     5     4     2    1
     6     3    12    1
     7     3    11    1
     8     3     2    1
     9    24     7    1
    10     2     5    1
    11     2     1    1
    12    17     7    1
    13     5     6    1
    14     7    18    1
    15     7     6    1
    16     1    10    1
    17     6     8    1
    18     6     9    1
    19    19     8    1
    20     8    20    1
    21     8    21    1
    22    23     9    1
    23     9    22    1
    24     9    25    1
