@<TRIPOS>MOLECULE
3
 25 25 0 0 0
SMALL
GASTEIGER

@<TRIPOS>ATOM
      1 C           1.5367    6.4525    8.6769 C.2     1  UNL1       -0.0477
      2 C           2.5681    5.7056    8.0723 C.2     1  UNL1       -0.0584
      3 C           2.1071    5.2760    6.7767 C.3     1  UNL1        0.0231
      4 C           0.7921    5.8324    6.5664 C.2     1  UNL1       -0.0584
      5 C           0.4245    6.5352    7.7538 C.2     1  UNL1       -0.0477
      6 C           1.6080    7.2191    9.9604 C.3     1  UNL1       -0.0395
      7 C           3.9534    5.4768    8.5858 C.3     1  UNL1       -0.0424
      8 C           2.9904    4.6788    5.7257 C.3     1  UNL1       -0.0510
      9 C           0.0858    5.8882    5.2446 C.3     1  UNL1       -0.0424
     10 C          -0.7097    7.5066    7.9084 C.3     1  UNL1       -0.0395
     11 H           2.3866    6.8279   10.6109 H       1  UNL1        0.0278
     12 H           1.8281    8.2680    9.7482 H       1  UNL1        0.0278
     13 H           0.6591    7.1794   10.4952 H       1  UNL1        0.0278
     14 H           4.2094    4.4187    8.5496 H       1  UNL1        0.0275
     15 H           4.6690    6.0231    7.9681 H       1  UNL1        0.0275
     16 H           4.0553    5.8094    9.6154 H       1  UNL1        0.0275
     17 H           2.4094    4.2586    4.9079 H       1  UNL1        0.0242
     18 H           3.6430    5.4536    5.3166 H       1  UNL1        0.0242
     19 H           3.6240    3.9007    6.1475 H       1  UNL1        0.0242
     20 H          -0.9754    6.0865    5.3732 H       1  UNL1        0.0275
     21 H           0.5131    6.6911    4.6404 H       1  UNL1        0.0275
     22 H           0.2020    4.9543    4.6985 H       1  UNL1        0.0275
     23 H          -0.3289    8.5252    7.8062 H       1  UNL1        0.0278
     24 H          -1.4728    7.3537    7.1490 H       1  UNL1        0.0278
     25 H          -1.1754    7.4248    8.8903 H       1  UNL1        0.0278
@<TRIPOS>BOND
     1    21     9    1
     2    22     9    1
     3    17     8    1
     4     9    20    1
     5     9     4    1
     6    18     8    1
     7     8    19    1
     8     8     3    1
     9     4     3    1
    10     4     5    2
    11     3     2    1
    12    24    10    1
    13     5    10    1
    14     5     1    1
    15    23    10    1
    16    10    25    1
    17    15     7    1
    18     2     7    1
    19     2     1    2
    20    14     7    1
    21     7    16    1
    22     1     6    1
    23    12     6    1
    24     6    13    1
    25     6    11    1
