@<TRIPOS>MOLECULE
10
 16 15 0 0 0
SMALL
GASTEIGER

@<TRIPOS>ATOM
      1 SI          2.5282    8.8377    7.1231 Si      1  UNL1        0.0000
      2 C           2.1693    7.1184    6.3561 C.3     1  UNL1        0.0000
      3 H           1.8990    7.2011    5.3082 H       1  UNL1        0.0000
      4 H           1.3502    6.6204    6.8649 H       1  UNL1        0.0000
      5 H           3.0406    6.4740    6.4228 H       1  UNL1        0.0000
      6 C           0.9033    9.8551    7.0415 C.3     1  UNL1        0.0000
      7 H           1.0501   10.8498    7.4512 H       1  UNL1        0.0000
      8 H           0.1044    9.3825    7.6049 H       1  UNL1        0.0000
      9 H           0.5591    9.9705    6.0182 H       1  UNL1        0.0000
     10 C           4.0205    9.6323    6.2855 C.3     1  UNL1        0.0000
     11 H           3.9734   10.7216    6.4546 H       1  UNL1        0.0000
     12 H           3.9302    9.4946    5.1965 H       1  UNL1        0.0000
     13 C           2.9618    8.5856    8.9756 C.3     1  UNL1        0.0000
     14 H           4.0172    8.3180    9.0807 H       1  UNL1        0.0000
     15 H           2.3684    7.7994    9.4314 H       1  UNL1        0.0000
     16 H           2.7907    9.4937    9.5442 H       1  UNL1        0.0000
@<TRIPOS>BOND
     1    12    10    1
     2     3     2    1
     3     9     6    1
     4    10    11    1
     5    10     1    1
     6     2     5    1
     7     2     4    1
     8     2     1    1
     9     6     1    1
    10     6     7    1
    11     6     8    1
    12     1    13    1
    13    13    14    1
    14    13    15    1
    15    13    16    1
