@<TRIPOS>MOLECULE
2
 16 15 0 0 0
SMALL
GASTEIGER

@<TRIPOS>ATOM
      1 SI          7.8865    5.9406    6.8333 Si      1  UNL1        0.0000
      2 C           6.2175    6.8162    6.9279 C.3     1  UNL1        0.0000
      3 H           5.6531    6.3716    7.7622 H       1  UNL1        0.0000
      4 H           5.6513    6.5320    6.0255 H       1  UNL1        0.0000
      5 C           9.0928    6.8998    5.6843 C.3     1  UNL1        0.0000
      6 H           8.7026    6.9680    4.6722 H       1  UNL1        0.0000
      7 H          10.0584    6.4067    5.6265 H       1  UNL1        0.0000
      8 H           9.2612    7.9123    6.0434 H       1  UNL1        0.0000
      9 C           7.7990    4.1579    6.1258 C.3     1  UNL1        0.0000
     10 H           7.1430    3.5317    6.7227 H       1  UNL1        0.0000
     11 H           8.7749    3.6819    6.1049 H       1  UNL1        0.0000
     12 H           7.4132    4.1575    5.1106 H       1  UNL1        0.0000
     13 C           8.7093    5.8085    8.5578 C.3     1  UNL1        0.0000
     14 H           8.6914    6.7606    9.0789 H       1  UNL1        0.0000
     15 H           9.7444    5.4894    8.4805 H       1  UNL1        0.0000
     16 H           8.1933    5.0865    9.1826 H       1  UNL1        0.0000
@<TRIPOS>BOND
     1     6     5    1
     2    12     9    1
     3     7     5    1
     4     5     8    1
     5     5     1    1
     6     4     2    1
     7    11     9    1
     8     9    10    1
     9     9     1    1
    10     1     2    1
    11     1    13    1
    12     2     3    1
    13    15    13    1
    14    13    14    1
    15    13    16    1
