@<TRIPOS>MOLECULE
2
 16 15 0 0 0
SMALL
GASTEIGER

@<TRIPOS>ATOM
      1 SI         -4.0872   16.0022   11.3514 Si      1  UNL1        0.0000
      2 C          -2.7210   15.1326   10.3857 C.3     1  UNL1        0.0000
      3 H          -2.0071   15.9155   10.0751 H       1  UNL1        0.0000
      4 H          -3.1860   14.7541    9.4574 H       1  UNL1        0.0000
      5 C          -3.4024   17.0626   12.7969 C.3     1  UNL1        0.0000
      6 H          -3.0076   16.4498   13.6007 H       1  UNL1        0.0000
      7 H          -4.1826   17.6884   13.2192 H       1  UNL1        0.0000
      8 H          -2.6069   17.7214   12.4619 H       1  UNL1        0.0000
      9 C          -5.0726   17.2304   10.2454 C.3     1  UNL1        0.0000
     10 H          -4.4234   17.9915    9.8228 H       1  UNL1        0.0000
     11 H          -5.8512   17.7403   10.8051 H       1  UNL1        0.0000
     12 H          -5.5503   16.7140    9.4179 H       1  UNL1        0.0000
     13 C          -5.3672   14.7580   12.0537 C.3     1  UNL1        0.0000
     14 H          -5.2659   13.7884   11.5755 H       1  UNL1        0.0000
     15 H          -6.3835   15.1001   11.8859 H       1  UNL1        0.0000
     16 H          -5.2443   14.6174   13.1229 H       1  UNL1        0.0000
@<TRIPOS>BOND
     1    12     9    1
     2     4     2    1
     3    10     9    1
     4     3     2    1
     5     9    11    1
     6     9     1    1
     7     2     1    1
     8     1    13    1
     9     1     5    1
    10    14    13    1
    11    15    13    1
    12    13    16    1
    13     8     5    1
    14     5     7    1
    15     5     6    1
