@<TRIPOS>MOLECULE
1
 4 3 0 0 0
SMALL
GASTEIGER

@<TRIPOS>ATOM
      1 C           8.9957   10.1277   11.6105 C.3     1  UNL1       -0.0681
      2 H           8.6354   11.0856   11.2268 H       1  UNL1        0.0227
      3 H           9.2461    9.5416   10.7210 H       1  UNL1        0.0227
      4 H           9.9488   10.3443   12.1037 H       1  UNL1        0.0227
@<TRIPOS>BOND
     1     3     1    1
     2     2     1    1
     3     1     4    1
