@<TRIPOS>MOLECULE
1
 4 3 0 0 0
SMALL
GASTEIGER

@<TRIPOS>ATOM
      1 C          15.1075    7.8402   11.2145 C.3     1  UNL1       -0.0681
      2 H          15.7069    7.4954   12.0708 H       1  UNL1        0.0227
      3 H          15.3449    8.9103   11.0935 H       1  UNL1        0.0227
      4 H          14.0554    7.7808   11.5346 H       1  UNL1        0.0227
@<TRIPOS>BOND
     1     3     1    1
     2     1     4    1
     3     1     2    1
