@<TRIPOS>MOLECULE
1
 4 3 0 0 0
SMALL
GASTEIGER

@<TRIPOS>ATOM
      1 C          -0.1808    4.4136    2.8633 C.3     1  UNL1       -0.0681
      2 H          -0.5072    3.3746    3.0059 H       1  UNL1        0.0227
      3 H          -0.0297    4.5589    1.7903 H       1  UNL1        0.0227
      4 H          -1.0156    5.0592    3.1624 H       1  UNL1        0.0227
@<TRIPOS>BOND
     1     3     1    1
     2     1     2    1
     3     1     4    1
