@<TRIPOS>MOLECULE
1
 4 3 0 0 0
SMALL
GASTEIGER

@<TRIPOS>ATOM
      1 C          16.9602    5.4878   10.4607 C.3     1  UNL1       -0.0681
      2 H          17.7953    6.1235   10.7999 H       1  UNL1        0.0227
      3 H          16.5269    5.0367   11.3683 H       1  UNL1        0.0227
      4 H          17.4050    4.6640    9.8868 H       1  UNL1        0.0227
@<TRIPOS>BOND
     1     4     1    1
     2     1     2    1
     3     1     3    1
