@<TRIPOS>MOLECULE
1
 4 3 0 0 0
SMALL
GASTEIGER

@<TRIPOS>ATOM
      1 C           0.3966    4.5654    5.5755 C.3     1  UNL1       -0.0681
      2 H           0.9838    4.6820    6.4904 H       1  UNL1        0.0227
      3 H          -0.0608    3.5680    5.6140 H       1  UNL1        0.0227
      4 H          -0.4201    5.2971    5.6205 H       1  UNL1        0.0227
@<TRIPOS>BOND
     1     1     3    1
     2     1     4    1
     3     1     2    1
