@<TRIPOS>MOLECULE
2
 16 15 0 0 0
SMALL
GASTEIGER

@<TRIPOS>ATOM
      1 SI          6.6021    1.8363    0.9985 Si      1  UNL1        0.0000
      2 C           5.9468    1.4400    2.7151 C.3     1  UNL1        0.0000
      3 C           7.5700    3.4916    0.9982 C.3     1  UNL1        0.0000
      4 C           5.1433    1.9861   -0.2349 C.3     1  UNL1        0.0000
      5 C           7.7983    0.5229    0.2596 C.3     1  UNL1        0.0000
      6 H           5.5294    0.4247    2.7004 H       1  UNL1        0.0000
      7 H           6.7923    1.3982    3.4140 H       1  UNL1        0.0000
      8 H           6.9746    4.2828    1.4431 H       1  UNL1        0.0000
      9 H           7.8382    3.7989   -0.0082 H       1  UNL1        0.0000
     10 H           8.4915    3.4053    1.5666 H       1  UNL1        0.0000
     11 H           4.4189    2.7138    0.1222 H       1  UNL1        0.0000
     12 H           4.6271    1.0374   -0.3481 H       1  UNL1        0.0000
     13 H           5.4728    2.2988   -1.2214 H       1  UNL1        0.0000
     14 H           7.3102   -0.4425    0.1672 H       1  UNL1        0.0000
     15 H           8.6692    0.3865    0.8933 H       1  UNL1        0.0000
     16 H           8.1531    0.8049   -0.7272 H       1  UNL1        0.0000
@<TRIPOS>BOND
     1    13     4    1
     2    16     5    1
     3    12     4    1
     4     4    11    1
     5     4     1    1
     6     9     3    1
     7    14     5    1
     8     5    15    1
     9     5     1    1
    10     3     1    1
    11     3     8    1
    12     3    10    1
    13     1     2    1
    14     6     2    1
    15     2     7    1
