@<TRIPOS>MOLECULE
1
 16 15 0 0 0
SMALL
GASTEIGER

@<TRIPOS>ATOM
      1 C           2.6908    4.3903    0.9572 C.3     1  UNL1        0.0000
      2 SI          2.5758    6.0046    0.0085 Si      1  UNL1        0.0000
      3 C           1.0847    5.9010   -1.2021 C.3     1  UNL1        0.0000
      4 C           4.0911    6.4907   -1.0683 C.3     1  UNL1        0.0000
      5 C           2.3473    7.4425    1.2673 C.3     1  UNL1        0.0000
      6 H           3.4532    4.4922    1.7420 H       1  UNL1        0.0000
      7 H           3.0492    3.5987    0.2825 H       1  UNL1        0.0000
      8 H           1.4224    5.6462   -2.2020 H       1  UNL1        0.0000
      9 H           0.5574    6.8471   -1.2755 H       1  UNL1        0.0000
     10 H           0.3674    5.1402   -0.8883 H       1  UNL1        0.0000
     11 H           3.9270    7.4240   -1.5982 H       1  UNL1        0.0000
     12 H           4.3034    5.7261   -1.8096 H       1  UNL1        0.0000
     13 H           4.9834    6.6122   -0.4620 H       1  UNL1        0.0000
     14 H           1.9304    8.3245    0.7920 H       1  UNL1        0.0000
     15 H           3.3040    7.7313    1.6912 H       1  UNL1        0.0000
     16 H           1.6917    7.1670    2.0910 H       1  UNL1        0.0000
@<TRIPOS>BOND
     1     8     3    1
     2    12     4    1
     3    11     4    1
     4     9     3    1
     5     3    10    1
     6     3     2    1
     7     4    13    1
     8     4     2    1
     9     2     1    1
    10     2     5    1
    11     7     1    1
    12    14     5    1
    13     1     6    1
    14     5    15    1
    15     5    16    1
