@<TRIPOS>MOLECULE
1
 16 15 0 0 0
SMALL
GASTEIGER

@<TRIPOS>ATOM
      1 C          -0.7123    5.3825    1.6767 C.3     1  UNL1        0.0000
      2 SI         -1.7505    5.7329    3.2023 Si      1  UNL1        0.0000
      3 C          -1.7826    4.1617    4.3107 C.3     1  UNL1        0.0000
      4 C          -1.0332    7.2134    4.2004 C.3     1  UNL1        0.0000
      5 C          -3.5845    6.1828    2.8510 C.3     1  UNL1        0.0000
      6 H          -1.4044    5.0995    0.8660 H       1  UNL1        0.0000
      7 H          -0.2385    6.3149    1.3489 H       1  UNL1        0.0000
      8 H          -0.9432    3.5037    4.0666 H       1  UNL1        0.0000
      9 H          -2.7036    3.6071    4.1609 H       1  UNL1        0.0000
     10 H          -1.7331    4.4073    5.3682 H       1  UNL1        0.0000
     11 H           0.0520    7.2405    4.1756 H       1  UNL1        0.0000
     12 H          -1.3397    7.1825    5.2409 H       1  UNL1        0.0000
     13 H          -1.3878    8.1526    3.7885 H       1  UNL1        0.0000
     14 H          -4.0637    5.4089    2.2591 H       1  UNL1        0.0000
     15 H          -3.6630    7.1125    2.2960 H       1  UNL1        0.0000
     16 H          -4.1567    6.2988    3.7664 H       1  UNL1        0.0000
@<TRIPOS>BOND
     1     6     1    1
     2     7     1    1
     3     1     2    1
     4    14     5    1
     5    15     5    1
     6     5     2    1
     7     5    16    1
     8     2     4    1
     9     2     3    1
    10    13     4    1
    11     8     3    1
    12     9     3    1
    13    11     4    1
    14     4    12    1
    15     3    10    1
