@<TRIPOS>MOLECULE
2
 15 14 0 0 0
SMALL
GASTEIGER

@<TRIPOS>ATOM
      1 SI         -1.0481    2.6707    0.9637 Si      1  UNL1        0.0000
      2 C           0.8672    2.6430    3.3468 C.1     1  UNL1        0.0000
      3 C           0.1020    2.6541    2.3962 C.1     1  UNL1        0.0000
      4 C          -1.8087    0.9358    0.7055 C.3     1  UNL1        0.0000
      5 H          -1.0384    0.1944    0.5120 H       1  UNL1        0.0000
      6 H          -2.4968    0.9211   -0.1353 H       1  UNL1        0.0000
      7 H          -2.3583    0.6134    1.5854 H       1  UNL1        0.0000
      8 C          -0.1216    3.1722   -0.6315 C.3     1  UNL1        0.0000
      9 H           0.2907    4.1740   -0.5477 H       1  UNL1        0.0000
     10 H          -0.7777    3.1589   -1.4976 H       1  UNL1        0.0000
     11 H           0.7039    2.4957   -0.8339 H       1  UNL1        0.0000
     12 C          -2.4628    3.9217    1.2604 C.3     1  UNL1        0.0000
     13 H          -3.0057    3.6893    2.1723 H       1  UNL1        0.0000
     14 H          -3.1781    3.9204    0.4424 H       1  UNL1        0.0000
     15 H          -2.0780    4.9331    1.3582 H       1  UNL1        0.0000
@<TRIPOS>BOND
     1    10     8    1
     2    11     8    1
     3     8     9    1
     4     8     1    1
     5     6     4    1
     6    14    12    1
     7     5     4    1
     8     4     1    1
     9     4     7    1
    10     1    12    1
    11     1     3    1
    12    12    15    1
    13    12    13    1
    14     3     2    3
