@<TRIPOS>MOLECULE
2
 15 14 0 0 0
SMALL
GASTEIGER

@<TRIPOS>ATOM
      1 SI          5.4291    2.5574    8.7934 Si      1  UNL1        0.0000
      2 C           3.4370    2.6091    6.4745 C.1     1  UNL1        0.0000
      3 C           4.2275    2.5907    7.4041 C.1     1  UNL1        0.0000
      4 C           6.1066    0.7877    9.0463 C.3     1  UNL1        0.0000
      5 H           5.3023    0.0848    9.2443 H       1  UNL1        0.0000
      6 H           6.7997    0.7385    9.8817 H       1  UNL1        0.0000
      7 H           6.6334    0.4396    8.1621 H       1  UNL1        0.0000
      8 C           6.9026    3.7188    8.4252 C.3     1  UNL1        0.0000
      9 H           7.4428    3.3979    7.5387 H       1  UNL1        0.0000
     10 H           7.6102    3.7431    9.2494 H       1  UNL1        0.0000
     11 H           6.5653    4.7368    8.2516 H       1  UNL1        0.0000
     12 C           4.5905    3.1280   10.4137 C.3     1  UNL1        0.0000
     13 H           4.2092    4.1411   10.3223 H       1  UNL1        0.0000
     14 H           5.2834    3.1121   11.2505 H       1  UNL1        0.0000
     15 H           3.7524    2.4856   10.6691 H       1  UNL1        0.0000
@<TRIPOS>BOND
     1     2     3    3
     2     3     1    1
     3     9     8    1
     4     7     4    1
     5    11     8    1
     6     8     1    1
     7     8    10    1
     8     1     4    1
     9     1    12    1
    10     4     5    1
    11     4     6    1
    12    13    12    1
    13    12    15    1
    14    12    14    1
