@<TRIPOS>MOLECULE
2
 16 15 0 0 0
SMALL
GASTEIGER

@<TRIPOS>ATOM
      1 SI          2.1206    9.3884    5.6623 Si      1  UNL1        0.0000
      2 C           0.2686    9.7638    5.6654 C.3     1  UNL1        0.0000
      3 H          -0.2829    8.8163    5.7085 H       1  UNL1        0.0000
      4 H           0.0043   10.2157    4.7024 H       1  UNL1        0.0000
      5 C           2.5038    7.5191    5.8243 C.3     1  UNL1        0.0000
      6 H           1.9277    7.0769    6.6301 H       1  UNL1        0.0000
      7 H           3.5542    7.3390    6.0305 H       1  UNL1        0.0000
      8 H           2.2514    6.9865    4.9127 H       1  UNL1        0.0000
      9 C           2.9930   10.0054    4.0699 C.3     1  UNL1        0.0000
     10 H           2.6204    9.4902    3.1904 H       1  UNL1        0.0000
     11 H           4.0651    9.8433    4.1149 H       1  UNL1        0.0000
     12 H           2.8282   11.0677    3.9223 H       1  UNL1        0.0000
     13 C           2.9544   10.3067    7.1306 C.3     1  UNL1        0.0000
     14 H           2.8943   11.3872    6.9964 H       1  UNL1        0.0000
     15 H           4.0068   10.0516    7.2221 H       1  UNL1        0.0000
     16 H           2.4747   10.0498    8.0764 H       1  UNL1        0.0000
@<TRIPOS>BOND
     1    10     9    1
     2    12     9    1
     3     9    11    1
     4     9     1    1
     5     4     2    1
     6     8     5    1
     7     1     2    1
     8     1     5    1
     9     1    13    1
    10     2     3    1
    11     5     7    1
    12     5     6    1
    13    14    13    1
    14    13    15    1
    15    13    16    1
