@<TRIPOS>MOLECULE
2
 16 15 0 0 0
SMALL
GASTEIGER

@<TRIPOS>ATOM
      1 SI          0.0126   14.4771    6.2731 Si      1  UNL1        0.0000
      2 C           0.2108   13.4071    7.8051 C.3     1  UNL1        0.0000
      3 H          -0.3707   13.8453    8.6265 H       1  UNL1        0.0000
      4 H           1.2593   13.4491    8.1299 H       1  UNL1        0.0000
      5 C           0.5855   16.3036    6.4034 C.3     1  UNL1        0.0000
      6 H           0.0689   16.8234    7.2047 H       1  UNL1        0.0000
      7 H           0.4011   16.8522    5.4845 H       1  UNL1        0.0000
      8 H           1.6493   16.3620    6.6111 H       1  UNL1        0.0000
      9 C           0.9828   13.6861    4.8212 C.3     1  UNL1        0.0000
     10 H           2.0481   13.6846    5.0296 H       1  UNL1        0.0000
     11 H           0.8363   14.2327    3.8943 H       1  UNL1        0.0000
     12 H           0.6821   12.6537    4.6536 H       1  UNL1        0.0000
     13 C          -1.8481   14.5285    5.7888 C.3     1  UNL1        0.0000
     14 H          -2.3307   13.5747    5.9942 H       1  UNL1        0.0000
     15 H          -1.9821   14.7510    4.7348 H       1  UNL1        0.0000
     16 H          -2.3783   15.2931    6.3473 H       1  UNL1        0.0000
@<TRIPOS>BOND
     1    11     9    1
     2    12     9    1
     3    15    13    1
     4     9    10    1
     5     9     1    1
     6     7     5    1
     7    13    14    1
     8    13     1    1
     9    13    16    1
    10     1     5    1
    11     1     2    1
    12     5     8    1
    13     5     6    1
    14     2     4    1
    15     2     3    1
