@<TRIPOS>MOLECULE
1
 15 14 0 0 0
SMALL
GASTEIGER

@<TRIPOS>ATOM
      1 C           2.6104    0.4962    5.3907 C.3     1  UNL1        0.1072
      2 N           2.6432   -0.6293    5.0446 N.3     1  UNL1       -0.2219
      3 C           2.7400   -1.9795    4.6458 C.3     1  UNL1        0.0290
      4 C           1.4889   -2.7232    5.1292 C.3     1  UNL1       -0.0458
      5 C           2.8272   -2.0344    3.1159 C.3     1  UNL1       -0.0458
      6 C           4.0008   -2.5861    5.2744 C.3     1  UNL1       -0.0458
      7 H           0.5946   -2.2689    4.7085 H       1  UNL1        0.0248
      8 H           1.4214   -2.6860    6.2143 H       1  UNL1        0.0248
      9 H           1.5322   -3.7641    4.8192 H       1  UNL1        0.0248
     10 H           3.7195   -1.5188    2.7671 H       1  UNL1        0.0248
     11 H           1.9540   -1.5620    2.6716 H       1  UNL1        0.0248
     12 H           2.8743   -3.0688    2.7851 H       1  UNL1        0.0248
     13 H           3.9438   -2.5389    6.3595 H       1  UNL1        0.0248
     14 H           4.8838   -2.0372    4.9560 H       1  UNL1        0.0248
     15 H           4.1049   -3.6255    4.9736 H       1  UNL1        0.0248
@<TRIPOS>BOND
     1    11     5    1
     2    10     5    1
     3    12     5    1
     4     5     3    1
     5     3     2    1
     6     3     4    1
     7     3     6    1
     8     7     4    1
     9     9     4    1
    10    14     6    1
    11    15     6    1
    12     2     1    1
    13     4     8    1
    14     6    13    1
