@<TRIPOS>MOLECULE
2
 23 23 0 0 0
SMALL
GASTEIGER

@<TRIPOS>ATOM
      1 SI          6.6634    0.1546    3.4455 Si      1  UNL1        0.0000
      2 C           4.7869    0.0076    3.5410 C.3     1  UNL1        0.0000
      3 H           4.5753   -1.0249    3.8554 H       1  UNL1        0.0000
      4 H           4.3958    0.0865    2.5179 H       1  UNL1        0.0000
      5 C           7.4557   -0.4723    5.0698 C.3     1  UNL1        0.0000
      6 H           6.9526   -0.0536    5.9357 H       1  UNL1        0.0000
      7 H           8.5071   -0.2123    5.1341 H       1  UNL1        0.0000
      8 H           7.3820   -1.5530    5.1347 H       1  UNL1        0.0000
      9 C           7.4154   -0.8826    2.0133 C.3     1  UNL1        0.0000
     10 H           7.0651   -0.5309    1.0474 H       1  UNL1        0.0000
     11 H           7.1396   -1.9288    2.1016 H       1  UNL1        0.0000
     12 H           8.4993   -0.8301    2.0050 H       1  UNL1        0.0000
     13 C           7.2798    1.9328    3.1178 C.ar    1  UNL1        0.0000
     14 C           6.3971    2.9849    2.9053 C.ar    1  UNL1        0.0000
     15 H           5.3332    2.7949    2.9600 H       1  UNL1        0.0000
     16 C           6.8439    4.2617    2.6124 C.ar    1  UNL1        0.0000
     17 H           6.1306    5.0574    2.4463 H       1  UNL1        0.0000
     18 C           8.2029    4.5135    2.5311 C.ar    1  UNL1        0.0000
     19 H           8.5602    5.5073    2.3010 H       1  UNL1        0.0000
     20 C           9.1022    3.4820    2.7465 C.ar    1  UNL1        0.0000
     21 H          10.1652    3.6719    2.6864 H       1  UNL1        0.0000
     22 C           8.6411    2.2096    3.0337 C.ar    1  UNL1        0.0000
     23 H           9.3539    1.4120    3.1904 H       1  UNL1        0.0000
@<TRIPOS>BOND
     1    10     9    1
     2    12     9    1
     3     9    11    1
     4     9     1    1
     5    19    18    1
     6    17    16    1
     7     4     2    1
     8    18    16   ar
     9    18    20   ar
    10    16    14   ar
    11    21    20    1
    12    20    22   ar
    13    14    15    1
    14    14    13   ar
    15    22    13   ar
    16    22    23    1
    17    13     1    1
    18     1     2    1
    19     1     5    1
    20     2     3    1
    21     5     7    1
    22     5     8    1
    23     5     6    1
