@<TRIPOS>MOLECULE
2
 27 29 0 0 0
SMALL
GASTEIGER

@<TRIPOS>ATOM
      1 N           2.2735    9.6701   11.0330 N.3     1  UNL1       -0.2211
      2 C           2.5022   10.8299   11.1452 C.3     1  UNL1        0.1073
      3 C           2.4713    8.3374   11.4862 C.3     1  UNL1        0.0382
      4 C           1.1032    7.7202   11.8015 C.3     1  UNL1       -0.0303
      5 H           0.4729    7.7576   10.9107 H       1  UNL1        0.0286
      6 H           0.6177    8.3056   12.5850 H       1  UNL1        0.0286
      7 C           3.1457    7.5331   10.3677 C.3     1  UNL1       -0.0303
      8 H           2.5287    7.5712    9.4678 H       1  UNL1        0.0286
      9 H           4.1137    7.9823   10.1366 H       1  UNL1        0.0286
     10 C           3.3512    8.3029   12.7408 C.3     1  UNL1       -0.0303
     11 H           2.8746    8.8886   13.5280 H       1  UNL1        0.0286
     12 H           4.3130    8.7656   12.5148 H       1  UNL1        0.0286
     13 C           1.2949    6.2736   12.2563 C.3     1  UNL1       -0.0388
     14 H           0.3169    5.8347   12.4835 H       1  UNL1        0.0302
     15 C           1.9666    5.4717   11.1421 C.3     1  UNL1       -0.0472
     16 H           2.0916    4.4330   11.4558 H       1  UNL1        0.0271
     17 H           1.3389    5.4782   10.2484 H       1  UNL1        0.0271
     18 C           3.3295    6.0865   10.8256 C.3     1  UNL1       -0.0388
     19 H           3.8107    5.5146   10.0246 H       1  UNL1        0.0302
     20 C           4.2088    6.0541   12.0749 C.3     1  UNL1       -0.0472
     21 H           4.3600    5.0212   12.3960 H       1  UNL1        0.0271
     22 H           5.1877    6.4830   11.8511 H       1  UNL1        0.0271
     23 C           3.5353    6.8537   13.1896 C.3     1  UNL1       -0.0388
     24 H           4.1640    6.8309   14.0864 H       1  UNL1        0.0302
     25 C           2.1712    6.2419   13.5081 C.3     1  UNL1       -0.0472
     26 H           1.6911    6.8042   14.3117 H       1  UNL1        0.0271
     27 H           2.2951    5.2112   13.8477 H       1  UNL1        0.0271
@<TRIPOS>BOND
     1     8     7    1
     2    19    18    1
     3     9     7    1
     4    17    15    1
     5     7    18    1
     6     7     3    1
     7    18    15    1
     8    18    20    1
     9     5     4    1
    10     1     2    1
    11     1     3    1
    12    15    16    1
    13    15    13    1
    14     3     4    1
    15     3    10    1
    16     4    13    1
    17     4     6    1
    18    22    20    1
    19    20    21    1
    20    20    23    1
    21    13    14    1
    22    13    25    1
    23    12    10    1
    24    10    23    1
    25    10    11    1
    26    23    25    1
    27    23    24    1
    28    25    27    1
    29    25    26    1
