@<TRIPOS>MOLECULE
1
 15 15 0 0 0
SMALL
GASTEIGER

@<TRIPOS>ATOM
      1 C          11.9144    7.2534    4.0112 C.2     1  UNL1       -0.0178
      2 C          12.8096    7.5136    4.9704 C.2     1  UNL1       -0.0904
      3 C          12.2117    6.3544    2.8947 C.ar    1  UNL1       -0.0179
      4 C          11.1884    5.6259    2.2831 C.ar    1  UNL1       -0.0540
      5 C          11.4494    4.8144    1.1957 C.ar    1  UNL1       -0.0612
      6 C          12.7333    4.7238    0.6820 C.ar    1  UNL1       -0.0617
      7 C          13.7571    5.4474    1.2707 C.ar    1  UNL1       -0.0612
      8 C          13.5008    6.2517    2.3645 C.ar    1  UNL1       -0.0540
      9 H          13.7565    6.9922    5.0667 H       1  UNL1        0.0541
     10 H          12.6117    8.2505    5.7509 H       1  UNL1        0.0541
     11 H          10.1845    5.6939    2.6779 H       1  UNL1        0.0624
     12 H          10.6461    4.2528    0.7414 H       1  UNL1        0.0618
     13 H          12.9349    4.0960   -0.1735 H       1  UNL1        0.0618
     14 H          14.7604    5.3856    0.8734 H       1  UNL1        0.0618
     15 H          14.3056    6.8194    2.8099 H       1  UNL1        0.0624
@<TRIPOS>BOND
     1    13     6    1
     2     6     5   ar
     3     6     7   ar
     4    12     5    1
     5    14     7    1
     6     5     4   ar
     7     7     8   ar
     8     4    11    1
     9     4     3   ar
    10     8    15    1
    11     8     3   ar
    12     3     1    1
    13     1     2    2
    14     2     9    1
    15     2    10    1
