@<TRIPOS>MOLECULE
2
 16 15 0 0 0
SMALL
GASTEIGER

@<TRIPOS>ATOM
      1 SI          9.8383    7.0203    7.6520 Si      1  UNL1        0.0000
      2 C           9.8104    8.6076    6.5969 C.3     1  UNL1        0.0000
      3 C          10.9736    5.6553    6.9307 C.3     1  UNL1        0.0000
      4 C           8.0636    6.3236    7.7764 C.3     1  UNL1        0.0000
      5 C          10.4649    7.4113    9.4224 C.3     1  UNL1        0.0000
      6 H          10.5603    9.3252    6.9667 H       1  UNL1        0.0000
      7 H           8.8329    9.0751    6.7592 H       1  UNL1        0.0000
      8 H          10.8143    4.7162    7.4524 H       1  UNL1        0.0000
      9 H          12.0272    5.9023    7.0210 H       1  UNL1        0.0000
     10 H          10.7591    5.4902    5.8760 H       1  UNL1        0.0000
     11 H           8.0382    5.4204    8.3778 H       1  UNL1        0.0000
     12 H           7.3800    7.0370    8.2267 H       1  UNL1        0.0000
     13 H           7.6826    6.0744    6.7913 H       1  UNL1        0.0000
     14 H          10.4659    6.5172   10.0365 H       1  UNL1        0.0000
     15 H          11.4779    7.8017    9.4129 H       1  UNL1        0.0000
     16 H           9.8348    8.1453    9.9143 H       1  UNL1        0.0000
@<TRIPOS>BOND
     1    10     3    1
     2     2     7    1
     3     2     6    1
     4     2     1    1
     5    13     4    1
     6     3     9    1
     7     3     8    1
     8     3     1    1
     9     1     4    1
    10     1     5    1
    11     4    12    1
    12     4    11    1
    13    15     5    1
    14     5    16    1
    15     5    14    1
