@<TRIPOS>MOLECULE
2
 16 15 0 0 0
SMALL
GASTEIGER

@<TRIPOS>ATOM
      1 SI          1.1383    3.5503    5.7708 Si      1  UNL1        0.0000
      2 C           2.2558    2.0310    5.7484 C.3     1  UNL1        0.0000
      3 H           1.6516    1.1372    5.5526 H       1  UNL1        0.0000
      4 H           2.6602    1.8807    6.7585 H       1  UNL1        0.0000
      5 C           0.9595    4.3666    7.4987 C.3     1  UNL1        0.0000
      6 H           0.5581    3.6655    8.2241 H       1  UNL1        0.0000
      7 H           0.2919    5.2228    7.4676 H       1  UNL1        0.0000
      8 H           1.9176    4.7125    7.8747 H       1  UNL1        0.0000
      9 C           1.8950    4.8866    4.6163 C.3     1  UNL1        0.0000
     10 H           2.9718    4.9434    4.7730 H       1  UNL1        0.0000
     11 H           1.4812    5.8738    4.8002 H       1  UNL1        0.0000
     12 H           1.7183    4.6520    3.5693 H       1  UNL1        0.0000
     13 C          -0.6416    3.2005    5.1494 C.3     1  UNL1        0.0000
     14 H          -1.1781    2.5681    5.8493 H       1  UNL1        0.0000
     15 H          -0.6416    2.6959    4.1888 H       1  UNL1        0.0000
     16 H          -1.2080    4.1199    5.0376 H       1  UNL1        0.0000
@<TRIPOS>BOND
     1    12     9    1
     2    15    13    1
     3     9    10    1
     4     9    11    1
     5     9     1    1
     6    16    13    1
     7    13     1    1
     8    13    14    1
     9     3     2    1
    10     2     1    1
    11     2     4    1
    12     1     5    1
    13     7     5    1
    14     5     8    1
    15     5     6    1
