@<TRIPOS>MOLECULE
1
 4 3 0 0 0
SMALL
GASTEIGER

@<TRIPOS>ATOM
      1 C          12.1828    9.2734    4.4524 C.3     1  UNL1       -0.0681
      2 H          11.8523    8.2424    4.2585 H       1  UNL1        0.0227
      3 H          11.4015    9.7042    5.0939 H       1  UNL1        0.0227
      4 H          13.0652    9.1663    5.0965 H       1  UNL1        0.0227
@<TRIPOS>BOND
     1     2     1    1
     2     1     3    1
     3     1     4    1
