@<TRIPOS>MOLECULE
2
 34 34 0 0 0
SMALL
GASTEIGER

@<TRIPOS>ATOM
      1 SI          8.3991    4.4677   17.8141 Si      1  UNL1        0.0000
      2 C           8.6975    6.2898   18.3690 C.3     1  UNL1        0.0000
      3 C           9.0953    6.3818   19.7924 C.2     1  UNL1        0.0000
      4 C          10.3232    6.9719   19.8810 C.2     1  UNL1        0.0000
      5 C          10.7669    7.3291   18.5568 C.2     1  UNL1        0.0000
      6 C           9.8116    6.9539   17.6535 C.2     1  UNL1        0.0000
      7 C           8.2828    5.8415   20.9316 C.3     1  UNL1        0.0000
      8 H           8.6261    4.8453   21.2134 H       1  UNL1        0.0000
      9 H           7.2238    5.7798   20.6710 H       1  UNL1        0.0000
     10 H           8.3796    6.4774   21.8109 H       1  UNL1        0.0000
     11 C          11.1458    7.2029   21.1049 C.3     1  UNL1        0.0000
     12 H          10.5851    6.9795   22.0087 H       1  UNL1        0.0000
     13 H          11.4996    8.2327   21.1539 H       1  UNL1        0.0000
     14 H          12.0249    6.5587   21.0875 H       1  UNL1        0.0000
     15 C          12.0810    7.9817   18.2801 C.3     1  UNL1        0.0000
     16 H          12.8949    7.3081   18.5470 H       1  UNL1        0.0000
     17 H          12.2025    8.8891   18.8730 H       1  UNL1        0.0000
     18 H          12.1836    8.2372   17.2288 H       1  UNL1        0.0000
     19 C           9.8913    7.1078   16.1604 C.3     1  UNL1        0.0000
     20 H          10.3246    8.0723   15.8933 H       1  UNL1        0.0000
     21 H           8.9016    7.0322   15.6988 H       1  UNL1        0.0000
     22 H          10.5301    6.3358   15.7280 H       1  UNL1        0.0000
     23 C           8.0835    4.3275   15.9272 C.3     1  UNL1        0.0000
     24 H           7.6616    3.3525   15.7062 H       1  UNL1        0.0000
     25 H           9.0012    4.4113   15.3569 H       1  UNL1        0.0000
     26 H           7.3879    5.0765   15.5578 H       1  UNL1        0.0000
     27 C           9.9159    3.4056   18.2670 C.3     1  UNL1        0.0000
     28 H          10.0887    3.4015   19.3383 H       1  UNL1        0.0000
     29 H          10.8162    3.7891   17.7967 H       1  UNL1        0.0000
     30 H           9.7880    2.3760   17.9484 H       1  UNL1        0.0000
     31 C           6.8175    3.7752   18.6535 C.3     1  UNL1        0.0000
     32 H           6.4719    2.8962   18.1193 H       1  UNL1        0.0000
     33 H           5.9964    4.4948   18.6731 H       1  UNL1        0.0000
     34 H           7.0102    3.4660   19.6742 H       1  UNL1        0.0000
@<TRIPOS>BOND
     1    25    23    1
     2    26    23    1
     3    21    19    1
     4    24    23    1
     5    22    19    1
     6    20    19    1
     7    23     1    1
     8    19     6    1
     9    18    15    1
    10     6     2    1
    11     6     5    2
    12    29    27    1
    13     1    27    1
    14     1     2    1
    15     1    31    1
    16    30    27    1
    17    32    31    1
    18    27    28    1
    19    15    16    1
    20    15     5    1
    21    15    17    1
    22     2     3    1
    23     5     4    1
    24    31    33    1
    25    31    34    1
    26     3     4    2
    27     3     7    1
    28     4    11    1
    29     9     7    1
    30     7     8    1
    31     7    10    1
    32    14    11    1
    33    11    13    1
    34    11    12    1
