@<TRIPOS>MOLECULE
6
 8 7 0 0 0
SMALL
GASTEIGER

@<TRIPOS>ATOM
      1 C           3.1426    9.2866   17.7699 C.2     1  UNL1       -0.1026
      2 H           2.8408    8.5084   17.0845 H       1  UNL1        0.0532
      3 H           2.7477   10.2700   17.5830 H       1  UNL1        0.0532
      4 C           3.9433    9.0314   18.8093 C.2     1  UNL1       -0.0908
      5 H           4.1827    9.8436   19.4957 H       1  UNL1        0.0566
      6 C           4.5017    7.7092   19.1506 C.3     1  UNL1       -0.0316
      7 H           3.8445    6.9113   18.7811 H       1  UNL1        0.0310
      8 H           4.6085    7.6042   20.2360 H       1  UNL1        0.0310
@<TRIPOS>BOND
     1     2     1    1
     2     3     1    1
     3     1     4    2
     4     7     6    1
     5     4     6    1
     6     4     5    1
     7     6     8    1
