@<TRIPOS>MOLECULE
1
 15 14 0 0 0
SMALL
GASTEIGER

@<TRIPOS>ATOM
      1 C          -4.7129    0.6009    4.2010 C.3     1  UNL1        0.0000
      2 SI         -6.4407    1.1851    4.6290 Si      1  UNL1        0.0000
      3 H          -4.6534   -0.4922    4.0348 H       1  UNL1        0.0000
      4 C          -7.6523    0.6741    3.2340 C.3     1  UNL1        0.0000
      5 C          -6.4644    3.0861    4.8132 C.3     1  UNL1        0.0000
      6 C          -7.0760    0.3871    6.2517 C.3     1  UNL1        0.0000
      7 H          -7.6471   -0.4008    3.0789 H       1  UNL1        0.0000
      8 H          -8.6701    0.9644    3.4766 H       1  UNL1        0.0000
      9 H          -7.3935    1.1425    2.2893 H       1  UNL1        0.0000
     10 H          -5.7461    3.5452    4.1396 H       1  UNL1        0.0000
     11 H          -7.4449    3.4976    4.5930 H       1  UNL1        0.0000
     12 H          -6.2020    3.3861    5.8227 H       1  UNL1        0.0000
     13 H          -6.4013    0.5820    7.0801 H       1  UNL1        0.0000
     14 H          -8.0518    0.7786    6.5235 H       1  UNL1        0.0000
     15 H          -7.1702   -0.6904    6.1531 H       1  UNL1        0.0000
@<TRIPOS>BOND
     1     9     4    1
     2     7     4    1
     3     4     8    1
     4     4     2    1
     5     3     1    1
     6    10     5    1
     7     1     2    1
     8    11     5    1
     9     2     5    1
    10     2     6    1
    11     5    12    1
    12    15     6    1
    13     6    14    1
    14     6    13    1
