@<TRIPOS>MOLECULE
2
 15 14 0 0 0
SMALL
GASTEIGER

@<TRIPOS>ATOM
      1 SI          0.5277    1.1851    3.5036 Si      1  UNL1        0.0000
      2 C          -1.2001    0.6009    3.9316 C.3     1  UNL1        0.0000
      3 C           1.7393    0.6741    4.8986 C.3     1  UNL1        0.0000
      4 C           0.5514    3.0861    3.3193 C.3     1  UNL1        0.0000
      5 C           1.1630    0.3871    1.8809 C.3     1  UNL1        0.0000
      6 H          -1.2596   -0.4922    4.0977 H       1  UNL1        0.0000
      7 H           1.7341   -0.4008    5.0537 H       1  UNL1        0.0000
      8 H           2.7571    0.9644    4.6560 H       1  UNL1        0.0000
      9 H           1.4805    1.1424    5.8434 H       1  UNL1        0.0000
     10 H          -0.1676    3.5450    3.9920 H       1  UNL1        0.0000
     11 H           1.5314    3.4978    3.5407 H       1  UNL1        0.0000
     12 H           0.2902    3.3861    2.3099 H       1  UNL1        0.0000
     13 H           0.4883    0.5820    1.0525 H       1  UNL1        0.0000
     14 H           2.1388    0.7786    1.6092 H       1  UNL1        0.0000
     15 H           1.2572   -0.6904    1.9796 H       1  UNL1        0.0000
@<TRIPOS>BOND
     1    13     5    1
     2    14     5    1
     3     5    15    1
     4     5     1    1
     5    12     4    1
     6     4     1    1
     7     4    11    1
     8     4    10    1
     9     1     2    1
    10     1     3    1
    11     2     6    1
    12     8     3    1
    13     3     7    1
    14     3     9    1
