@<TRIPOS>MOLECULE
1
 15 14 0 0 0
SMALL
GASTEIGER

@<TRIPOS>ATOM
      1 C          -3.0243    2.5449    2.5342 C.3     1  UNL1       -0.0290
      2 C          -3.4592    2.2802    1.1223 C.3     1  UNL1       -0.0343
      3 H          -2.7231    3.5977    2.6669 H       1  UNL1        0.0312
      4 C          -3.7288    0.7943    0.8600 C.3     1  UNL1       -0.0598
      5 C          -2.3429    2.7611    0.1784 C.3     1  UNL1       -0.0598
      6 C          -4.7398    3.0848    0.8377 C.3     1  UNL1       -0.0598
      7 H          -2.8495    0.2011    1.1129 H       1  UNL1        0.0235
      8 H          -4.5686    0.4523    1.4629 H       1  UNL1        0.0235
      9 H          -3.9678    0.6312   -0.1896 H       1  UNL1        0.0235
     10 H          -2.6281    2.5937   -0.8584 H       1  UNL1        0.0235
     11 H          -2.1513    3.8230    0.3155 H       1  UNL1        0.0235
     12 H          -1.4232    2.2169    0.3810 H       1  UNL1        0.0235
     13 H          -5.0707    2.9153   -0.1850 H       1  UNL1        0.0235
     14 H          -5.5287    2.7772    1.5202 H       1  UNL1        0.0235
     15 H          -4.5632    4.1495    0.9726 H       1  UNL1        0.0235
@<TRIPOS>BOND
     1    10     5    1
     2     9     4    1
     3    13     6    1
     4     5    11    1
     5     5    12    1
     6     5     2    1
     7     6    15    1
     8     6     2    1
     9     6    14    1
    10     4     7    1
    11     4     2    1
    12     4     8    1
    13     2     1    1
    14     1     3    1
