@<TRIPOS>MOLECULE
1
 15 14 0 0 0
SMALL
GASTEIGER

@<TRIPOS>ATOM
      1 C          -2.8887    2.5449    5.5984 C.3     1  UNL1       -0.0290
      2 C          -2.4538    2.2802    7.0103 C.3     1  UNL1       -0.0343
      3 C          -2.1842    0.7943    7.2726 C.3     1  UNL1       -0.0598
      4 C          -3.5701    2.7611    7.9543 C.3     1  UNL1       -0.0598
      5 C          -1.1732    3.0848    7.2949 C.3     1  UNL1       -0.0598
      6 H          -3.1900    3.5977    5.4657 H       1  UNL1        0.0312
      7 H          -3.0636    0.2011    7.0197 H       1  UNL1        0.0235
      8 H          -1.3444    0.4523    6.6697 H       1  UNL1        0.0235
      9 H          -1.9452    0.6312    8.3222 H       1  UNL1        0.0235
     10 H          -3.2849    2.5937    8.9910 H       1  UNL1        0.0235
     11 H          -3.7617    3.8230    7.8172 H       1  UNL1        0.0235
     12 H          -4.4898    2.2168    7.7516 H       1  UNL1        0.0235
     13 H          -0.8423    2.9153    8.3176 H       1  UNL1        0.0235
     14 H          -0.3843    2.7772    6.6123 H       1  UNL1        0.0235
     15 H          -1.3499    4.1495    7.1600 H       1  UNL1        0.0235
@<TRIPOS>BOND
     1     6     1    1
     2     1     2    1
     3    14     5    1
     4     8     3    1
     5     2     3    1
     6     2     5    1
     7     2     4    1
     8     7     3    1
     9    15     5    1
    10     3     9    1
    11     5    13    1
    12    12     4    1
    13    11     4    1
    14     4    10    1
