@<TRIPOS>MOLECULE
1
 15 14 0 0 0
SMALL
GASTEIGER

@<TRIPOS>ATOM
      1 C           3.0217    4.6821   10.0063 C.3     1  UNL1        0.0000
      2 H           2.1043    4.2331    9.6061 H       1  UNL1        0.0000
      3 SI          4.5645    4.4842    8.9245 Si      1  UNL1        0.0000
      4 C           5.9717    3.6543    9.9088 C.3     1  UNL1        0.0000
      5 H           6.8713    3.5549    9.3076 H       1  UNL1        0.0000
      6 H           5.6841    2.6650   10.2568 H       1  UNL1        0.0000
      7 H           6.2178    4.2502   10.7835 H       1  UNL1        0.0000
      8 C           5.0926    6.1703    8.1888 C.3     1  UNL1        0.0000
      9 H           5.3298    6.8743    8.9794 H       1  UNL1        0.0000
     10 H           4.3117    6.6044    7.5702 H       1  UNL1        0.0000
     11 H           5.9780    6.0515    7.5717 H       1  UNL1        0.0000
     12 C           4.0545    3.3514    7.4680 C.3     1  UNL1        0.0000
     13 H           3.2512    3.7873    6.8830 H       1  UNL1        0.0000
     14 H           3.7248    2.3761    7.8101 H       1  UNL1        0.0000
     15 H           4.8963    3.1980    6.8025 H       1  UNL1        0.0000
@<TRIPOS>BOND
     1    15    12    1
     2    13    12    1
     3    12    14    1
     4    12     3    1
     5    10     8    1
     6    11     8    1
     7     8     3    1
     8     8     9    1
     9     3     4    1
    10     3     1    1
    11     5     4    1
    12     2     1    1
    13     4     6    1
    14     4     7    1
