@<TRIPOS>MOLECULE
2
 16 15 0 0 0
SMALL
GASTEIGER

@<TRIPOS>ATOM
      1 SI         14.2728   13.1991   11.0737 Si      1  UNL1        0.0000
      2 C          12.5373   13.7424   11.6121 C.3     1  UNL1        0.0000
      3 C          14.4140   12.7136    9.2184 C.3     1  UNL1        0.0000
      4 C          14.8711   11.7163   12.1130 C.3     1  UNL1        0.0000
      5 C          15.5130   14.6434   11.3188 C.3     1  UNL1        0.0000
      6 H          12.5171   13.5655   12.6903 H       1  UNL1        0.0000
      7 H          12.4426   14.8312   11.4911 H       1  UNL1        0.0000
      8 H          15.3607   12.2105    9.0459 H       1  UNL1        0.0000
      9 H          14.3881   13.5650    8.5411 H       1  UNL1        0.0000
     10 H          13.6291   12.0170    8.9384 H       1  UNL1        0.0000
     11 H          15.8979   11.4535   11.8764 H       1  UNL1        0.0000
     12 H          14.8224   11.9277   13.1770 H       1  UNL1        0.0000
     13 H          14.2537   10.8461   11.9183 H       1  UNL1        0.0000
     14 H          16.5150   14.3540   11.0207 H       1  UNL1        0.0000
     15 H          15.5574   14.9498   12.3586 H       1  UNL1        0.0000
     16 H          15.2384   15.5163   10.7342 H       1  UNL1        0.0000
@<TRIPOS>BOND
     1     9     3    1
     2    10     3    1
     3     8     3    1
     4     3     1    1
     5    16     5    1
     6    14     5    1
     7     1     5    1
     8     1     2    1
     9     1     4    1
    10     5    15    1
    11     7     2    1
    12     2     6    1
    13    11     4    1
    14    13     4    1
    15     4    12    1
