@<TRIPOS>MOLECULE
1
 16 15 0 0 0
SMALL
GASTEIGER

@<TRIPOS>ATOM
      1 C           4.8876   -0.8407    3.8652 C.3     1  UNL1       -0.0476
      2 C           5.0336   -2.1524    4.6434 C.3     1  UNL1       -0.0377
      3 C           5.6224   -1.8613    6.0257 C.3     1  UNL1       -0.0601
      4 C           3.6953   -2.8901    4.7420 C.3     1  UNL1       -0.0601
      5 C           6.0236   -3.0515    3.8832 C.3     1  UNL1       -0.0601
      6 H           4.7430   -1.0978    2.8135 H       1  UNL1        0.0271
      7 H           5.8414   -0.3075    3.9429 H       1  UNL1        0.0271
      8 H           5.5766   -2.7409    6.6619 H       1  UNL1        0.0235
      9 H           6.6638   -1.5619    5.9311 H       1  UNL1        0.0235
     10 H           5.0811   -1.0460    6.4947 H       1  UNL1        0.0235
     11 H           2.9040   -2.2346    5.0963 H       1  UNL1        0.0235
     12 H           3.3986   -3.2583    3.7635 H       1  UNL1        0.0235
     13 H           3.7753   -3.7400    5.4167 H       1  UNL1        0.0235
     14 H           6.1861   -3.9746    4.4347 H       1  UNL1        0.0235
     15 H           5.6421   -3.3048    2.8975 H       1  UNL1        0.0235
     16 H           6.9819   -2.5530    3.7602 H       1  UNL1        0.0235
@<TRIPOS>BOND
     1     6     1    1
     2    15     5    1
     3    16     5    1
     4    12     4    1
     5     1     7    1
     6     1     2    1
     7     5    14    1
     8     5     2    1
     9     2     4    1
    10     2     3    1
    11     4    11    1
    12     4    13    1
    13     9     3    1
    14     3    10    1
    15     3     8    1
