@<TRIPOS>MOLECULE
1
 16 15 0 0 0
SMALL
GASTEIGER

@<TRIPOS>ATOM
      1 C           4.3660    2.0092    3.4072 C.3     1  UNL1       -0.0476
      2 C           4.2492    2.3095    1.9097 C.3     1  UNL1       -0.0377
      3 C           4.6988    1.1421    1.0317 C.3     1  UNL1       -0.0601
      4 C           5.1807    3.5041    1.6310 C.3     1  UNL1       -0.0601
      5 C           2.8176    2.7194    1.5629 C.3     1  UNL1       -0.0601
      6 H           3.9468    2.8803    3.9065 H       1  UNL1        0.0271
      7 H           5.4283    1.9281    3.6602 H       1  UNL1        0.0271
      8 H           4.0203    0.3048    1.1514 H       1  UNL1        0.0235
      9 H           4.6982    1.4391   -0.0153 H       1  UNL1        0.0235
     10 H           5.7045    0.8266    1.2988 H       1  UNL1        0.0235
     11 H           6.2184    3.2383    1.8180 H       1  UNL1        0.0235
     12 H           5.0878    3.8102    0.5917 H       1  UNL1        0.0235
     13 H           4.9232    4.3525    2.2599 H       1  UNL1        0.0235
     14 H           2.5535    3.6437    2.0715 H       1  UNL1        0.0235
     15 H           2.7096    2.8714    0.4908 H       1  UNL1        0.0235
     16 H           2.1167    1.9543    1.8806 H       1  UNL1        0.0235
@<TRIPOS>BOND
     1     9     3    1
     2    15     5    1
     3    12     4    1
     4     3     8    1
     5     3    10    1
     6     3     2    1
     7     5    16    1
     8     5     2    1
     9     5    14    1
    10     4    11    1
    11     4     2    1
    12     4    13    1
    13     2     1    1
    14     1     7    1
    15     1     6    1
