@<TRIPOS>MOLECULE
4
 11 10 0 0 0
SMALL
GASTEIGER

@<TRIPOS>ATOM
      1 N          11.9016    4.1518    3.3523 N.3     1  UNL1       -0.3023
      2 C          11.2220    3.5596    4.4795 C.3     1  UNL1       -0.0127
      3 C          11.3742    5.4500    2.9905 C.3     1  UNL1       -0.0127
      4 C          12.9045    3.5872    2.7418 C.3     1  UNL1        0.0439
      5 H          11.3646    4.1761    5.3687 H       1  UNL1        0.0391
      6 H          11.6175    2.5612    4.6569 H       1  UNL1        0.0391
      7 H          10.1547    3.4889    4.2650 H       1  UNL1        0.0391
      8 H          11.5109    6.1494    3.8188 H       1  UNL1        0.0391
      9 H          10.3079    5.3713    2.7731 H       1  UNL1        0.0391
     10 H          11.8829    5.8374    2.1108 H       1  UNL1        0.0391
     11 H          13.2377    4.2157    1.9068 H       1  UNL1        0.0494
@<TRIPOS>BOND
     1    11     4    1
     2    10     3    1
     3     4     1    1
     4     9     3    1
     5     3     1    1
     6     3     8    1
     7     1     2    1
     8     7     2    1
     9     2     6    1
    10     2     5    1
