@<TRIPOS>MOLECULE
1
 13 13 0 0 0
SMALL
GASTEIGER

@<TRIPOS>ATOM
      1 C           4.2465    4.0394   10.8389 C.1     1  UNL1       -0.0092
      2 C           4.4241    2.8347   10.8015 C.1     1  UNL1       -0.0525
      3 C           4.6666    1.4371   10.7341 C.ar    1  UNL1        0.0259
      4 C           5.8890    0.9207   11.1723 C.ar    1  UNL1       -0.0463
      5 C           6.1385   -0.4352   11.0967 C.ar    1  UNL1       -0.0606
      6 C           5.1782   -1.2947   10.5863 C.ar    1  UNL1       -0.0617
      7 C           3.9633   -0.7905   10.1501 C.ar    1  UNL1       -0.0606
      8 C           3.7053    0.5646   10.2210 C.ar    1  UNL1       -0.0463
      9 H           6.6337    1.5980   11.5680 H       1  UNL1        0.0630
     10 H           7.0868   -0.8271   11.4370 H       1  UNL1        0.0618
     11 H           5.3763   -2.3551   10.5293 H       1  UNL1        0.0618
     12 H           3.2136   -1.4600    9.7523 H       1  UNL1        0.0618
     13 H           2.7583    0.9608    9.8810 H       1  UNL1        0.0630
@<TRIPOS>BOND
     1    12     7    1
     2    13     8    1
     3     7     8   ar
     4     7     6   ar
     5     8     3   ar
     6    11     6    1
     7     6     5   ar
     8     3     2    1
     9     3     4   ar
    10     2     1    3
    11     5     4   ar
    12     5    10    1
    13     4     9    1
