@<TRIPOS>MOLECULE
2
 16 15 0 0 0
SMALL
GASTEIGER

@<TRIPOS>ATOM
      1 SI         12.9780    3.9511    5.6966 Si      1  UNL1        0.0000
      2 C          12.9196    2.1185    5.2619 C.3     1  UNL1        0.0000
      3 H          13.5638    1.5671    5.9569 H       1  UNL1        0.0000
      4 H          13.3529    1.9740    4.2641 H       1  UNL1        0.0000
      5 C          12.1870    5.0283    4.3316 C.3     1  UNL1        0.0000
      6 H          12.7018    4.9032    3.3841 H       1  UNL1        0.0000
      7 H          12.2102    6.0840    4.5844 H       1  UNL1        0.0000
      8 H          11.1511    4.7429    4.1824 H       1  UNL1        0.0000
      9 C          12.0173    4.2491    7.3297 C.3     1  UNL1        0.0000
     10 H          11.0060    3.8607    7.2296 H       1  UNL1        0.0000
     11 H          11.9492    5.3046    7.5761 H       1  UNL1        0.0000
     12 H          12.4934    3.7485    8.1687 H       1  UNL1        0.0000
     13 C          14.7578    4.6173    5.9768 C.3     1  UNL1        0.0000
     14 H          15.2623    4.0741    6.7694 H       1  UNL1        0.0000
     15 H          14.7564    5.6677    6.2496 H       1  UNL1        0.0000
     16 H          15.3569    4.5134    5.0782 H       1  UNL1        0.0000
@<TRIPOS>BOND
     1     6     5    1
     2     8     5    1
     3     4     2    1
     4     5     7    1
     5     5     1    1
     6    16    13    1
     7     2     1    1
     8     2     3    1
     9     1    13    1
    10     1     9    1
    11    13    15    1
    12    13    14    1
    13    10     9    1
    14     9    11    1
    15     9    12    1
