@<TRIPOS>MOLECULE
2
 15 14 0 0 0
SMALL
GASTEIGER

@<TRIPOS>ATOM
      1 SI          0.5121    0.6564   15.4286 Si      1  UNL1        0.0000
      2 C           0.5212    1.4900   12.4739 C.1     1  UNL1        0.0000
      3 C           0.5329    1.1580   13.6446 C.1     1  UNL1        0.0000
      4 C           1.3118    2.0349   16.4848 C.3     1  UNL1        0.0000
      5 H           2.3489    2.1936   16.2046 H       1  UNL1        0.0000
      6 H           1.2913    1.7861   17.5423 H       1  UNL1        0.0000
      7 H           0.7909    2.9795   16.3594 H       1  UNL1        0.0000
      8 C          -1.3005    0.4058   15.9792 C.3     1  UNL1        0.0000
      9 H          -1.8728    1.3235   15.8791 H       1  UNL1        0.0000
     10 H          -1.3633    0.0907   17.0171 H       1  UNL1        0.0000
     11 H          -1.7892   -0.3520   15.3741 H       1  UNL1        0.0000
     12 C           1.4874   -0.9695   15.6469 C.3     1  UNL1        0.0000
     13 H           2.5267   -0.8453   15.3582 H       1  UNL1        0.0000
     14 H           1.0699   -1.7585   15.0287 H       1  UNL1        0.0000
     15 H           1.4692   -1.3113   16.6781 H       1  UNL1        0.0000
@<TRIPOS>BOND
     1     2     3    3
     2     3     1    1
     3    14    12    1
     4    13    12    1
     5    11     8    1
     6     1    12    1
     7     1     8    1
     8     1     4    1
     9    12    15    1
    10     9     8    1
    11     8    10    1
    12     5     4    1
    13     7     4    1
    14     4     6    1
