@<TRIPOS>MOLECULE
2
 15 14 0 0 0
SMALL
GASTEIGER

@<TRIPOS>ATOM
      1 SI          0.6054   -2.8478    9.1350 Si      1  UNL1        0.0000
      2 C           0.5467    0.1012    9.9867 C.1     1  UNL1        0.0000
      3 C           0.5798   -1.0671    9.6478 C.1     1  UNL1        0.0000
      4 C           0.9998   -2.9595    7.2674 C.3     1  UNL1        0.0000
      5 H           0.2633   -2.4226    6.6769 H       1  UNL1        0.0000
      6 H           1.0071   -3.9906    6.9250 H       1  UNL1        0.0000
      7 H           1.9728   -2.5320    7.0443 H       1  UNL1        0.0000
      8 C           1.9414   -3.7785   10.1314 C.3     1  UNL1        0.0000
      9 H           2.9318   -3.3838    9.9252 H       1  UNL1        0.0000
     10 H           1.9523   -4.8385    9.8929 H       1  UNL1        0.0000
     11 H           1.7674   -3.6807   11.1987 H       1  UNL1        0.0000
     12 C          -1.1103   -3.6182    9.4698 C.3     1  UNL1        0.0000
     13 H          -1.8836   -3.1254    8.8877 H       1  UNL1        0.0000
     14 H          -1.3802   -3.5245   10.5174 H       1  UNL1        0.0000
     15 H          -1.1306   -4.6746    9.2164 H       1  UNL1        0.0000
@<TRIPOS>BOND
     1     5     4    1
     2     6     4    1
     3     7     4    1
     4     4     1    1
     5    13    12    1
     6     1    12    1
     7     1     3    1
     8     1     8    1
     9    15    12    1
    10    12    14    1
    11     3     2    3
    12    10     8    1
    13     9     8    1
    14     8    11    1
