@<TRIPOS>MOLECULE
2
 27 27 0 0 0
SMALL
GASTEIGER

@<TRIPOS>ATOM
      1 SI          5.7616    6.8799    0.9068 Si      1  UNL1        0.0000
      2 C          -0.3463    1.2897    2.8762 C.1     1  UNL1        0.0000
      3 C          -0.1312    2.2918    2.2256 C.1     1  UNL1        0.0000
      4 C           0.1214    3.4273    1.4226 C.ar    1  UNL1        0.0000
      5 C          -0.8244    3.8805    0.4975 C.ar    1  UNL1        0.0000
      6 H          -1.7732    3.3675    0.4207 H       1  UNL1        0.0000
      7 C          -0.5403    4.9656   -0.3104 C.ar    1  UNL1        0.0000
      8 H          -1.2791    5.3125   -1.0207 H       1  UNL1        0.0000
      9 C           0.6842    5.6050   -0.2303 C.ar    1  UNL1        0.0000
     10 H           0.9145    6.4415   -0.8742 H       1  UNL1        0.0000
     11 C           1.6370    5.1595    0.6884 C.ar    1  UNL1        0.0000
     12 C           1.3457    4.0858    1.5238 C.ar    1  UNL1        0.0000
     13 H           2.0802    3.7451    2.2400 H       1  UNL1        0.0000
     14 C           2.9174    5.7567    0.7584 C.1     1  UNL1        0.0000
     15 C           4.0346    6.2182    0.8132 C.1     1  UNL1        0.0000
     16 C           6.8272    5.6089    1.8509 C.3     1  UNL1        0.0000
     17 H           7.8497    5.9555    1.9729 H       1  UNL1        0.0000
     18 H           6.8620    4.6600    1.3237 H       1  UNL1        0.0000
     19 H           6.4227    5.4192    2.8409 H       1  UNL1        0.0000
     20 C           5.7470    8.5503    1.8263 C.3     1  UNL1        0.0000
     21 H           6.7454    8.9725    1.9024 H       1  UNL1        0.0000
     22 H           5.3578    8.4400    2.8342 H       1  UNL1        0.0000
     23 H           5.1220    9.2743    1.3117 H       1  UNL1        0.0000
     24 C           6.4293    7.1106   -0.8650 C.3     1  UNL1        0.0000
     25 H           7.4474    7.4899   -0.8613 H       1  UNL1        0.0000
     26 H           5.8188    7.8127   -1.4248 H       1  UNL1        0.0000
     27 H           6.4299    6.1713   -1.4100 H       1  UNL1        0.0000
@<TRIPOS>BOND
     1    26    24    1
     2    27    24    1
     3     8     7    1
     4    10     9    1
     5    24    25    1
     6    24     1    1
     7     7     9   ar
     8     7     5   ar
     9     9    11   ar
    10     6     5    1
    11     5     4   ar
    12    11    14    1
    13    11    12   ar
    14    14    15    3
    15    15     1    1
    16     1    20    1
    17     1    16    1
    18    23    20    1
    19    18    16    1
    20     4    12   ar
    21     4     3    1
    22    12    13    1
    23    20    21    1
    24    20    22    1
    25    16    17    1
    26    16    19    1
    27     3     2    3
