@<TRIPOS>MOLECULE
1
 16 15 0 0 0
SMALL
GASTEIGER

@<TRIPOS>ATOM
      1 C          -0.7651    3.3789    7.8769 C.3     1  UNL1       -0.0476
      2 C          -1.1188    4.3687    6.7424 C.3     1  UNL1       -0.0377
      3 C           0.0354    5.3652    6.5595 C.3     1  UNL1       -0.0601
      4 C          -2.4027    5.1434    7.0745 C.3     1  UNL1       -0.0601
      5 C          -1.3239    3.6010    5.4287 C.3     1  UNL1       -0.0601
      6 H          -0.7404    3.9713    8.8098 H       1  UNL1        0.0271
      7 H          -1.6418    2.7048    7.9989 H       1  UNL1        0.0271
      8 H           0.2155    5.9200    7.4795 H       1  UNL1        0.0235
      9 H          -0.1975    6.0811    5.7723 H       1  UNL1        0.0235
     10 H           0.9565    4.8372    6.2822 H       1  UNL1        0.0235
     11 H          -2.2801    5.7137    7.9928 H       1  UNL1        0.0235
     12 H          -3.2388    4.4600    7.2069 H       1  UNL1        0.0235
     13 H          -2.6542    5.8374    6.2748 H       1  UNL1        0.0235
     14 H          -2.1387    2.8843    5.5244 H       1  UNL1        0.0235
     15 H          -0.4078    3.0649    5.1541 H       1  UNL1        0.0235
     16 H          -1.5748    4.2882    4.6218 H       1  UNL1        0.0235
@<TRIPOS>BOND
     1    16     5    1
     2    15     5    1
     3     5    14    1
     4     5     2    1
     5     9     3    1
     6    13     4    1
     7    10     3    1
     8     3     2    1
     9     3     8    1
    10     2     4    1
    11     2     1    1
    12     4    12    1
    13     4    11    1
    14     1     7    1
    15     1     6    1
