@<TRIPOS>MOLECULE
1
 4 3 0 0 0
SMALL
GASTEIGER

@<TRIPOS>ATOM
      1 C           5.2737    5.0193   11.1457 C.3     1  UNL1       -0.0681
      2 H           5.6012    5.7061   11.9398 H       1  UNL1        0.0227
      3 H           5.8468    5.2669   10.2397 H       1  UNL1        0.0227
      4 H           5.5784    4.0140   11.4480 H       1  UNL1        0.0227
@<TRIPOS>BOND
     1     3     1    1
     2     1     4    1
     3     1     2    1
