@<TRIPOS>MOLECULE
2
 16 15 0 0 0
SMALL
GASTEIGER

@<TRIPOS>ATOM
      1 SI          4.6753   -2.5835    6.7396 Si      1  UNL1        0.0000
      2 C           4.5018   -0.7166    6.4793 C.3     1  UNL1        0.0000
      3 H           4.2804   -0.2628    7.4601 H       1  UNL1        0.0000
      4 H           3.5738   -0.5660    5.8968 H       1  UNL1        0.0000
      5 C           6.4910   -3.1646    6.5066 C.3     1  UNL1        0.0000
      6 H           6.9725   -2.6512    5.6764 H       1  UNL1        0.0000
      7 H           6.5453   -4.2307    6.3074 H       1  UNL1        0.0000
      8 H           7.0802   -2.9753    7.3995 H       1  UNL1        0.0000
      9 C           3.5705   -3.5486    5.5038 C.3     1  UNL1        0.0000
     10 H           2.5181   -3.4078    5.7316 H       1  UNL1        0.0000
     11 H           3.7710   -4.6149    5.5389 H       1  UNL1        0.0000
     12 H           3.7315   -3.2176    4.4829 H       1  UNL1        0.0000
     13 C           4.1461   -3.1539    8.4939 C.3     1  UNL1        0.0000
     14 H           4.7470   -2.6807    9.2650 H       1  UNL1        0.0000
     15 H           4.2541   -4.2278    8.6109 H       1  UNL1        0.0000
     16 H           3.1080   -2.9056    8.6926 H       1  UNL1        0.0000
@<TRIPOS>BOND
     1    12     9    1
     2     9    11    1
     3     9    10    1
     4     9     1    1
     5     6     5    1
     6     4     2    1
     7     7     5    1
     8     2     1    1
     9     2     3    1
    10     5     1    1
    11     5     8    1
    12     1    13    1
    13    13    15    1
    14    13    16    1
    15    13    14    1
