@<TRIPOS>MOLECULE
2
 16 15 0 0 0
SMALL
GASTEIGER

@<TRIPOS>ATOM
      1 SI         -1.5317    1.4493   11.5624 Si      1  UNL1        0.0000
      2 C          -0.2173    2.5404   12.3758 C.3     1  UNL1        0.0000
      3 H           0.0221    3.3438   11.6526 H       1  UNL1        0.0000
      4 H           0.7021    1.9324   12.4330 H       1  UNL1        0.0000
      5 C          -1.0990   -0.4059   11.7975 C.3     1  UNL1        0.0000
      6 H          -0.2190   -0.6759   11.2216 H       1  UNL1        0.0000
      7 H          -1.9115   -1.0477   11.4701 H       1  UNL1        0.0000
      8 H          -0.8921   -0.6407   12.8364 H       1  UNL1        0.0000
      9 C          -3.2837    1.7602   12.2897 C.3     1  UNL1        0.0000
     10 H          -3.2217    2.2635   13.2534 H       1  UNL1        0.0000
     11 H          -3.8343    0.8358   12.4343 H       1  UNL1        0.0000
     12 H          -3.8758    2.3886   11.6323 H       1  UNL1        0.0000
     13 C          -1.6762    1.7183    9.6661 C.3     1  UNL1        0.0000
     14 H          -1.9547    2.7424    9.4363 H       1  UNL1        0.0000
     15 H          -2.4296    1.0703    9.2282 H       1  UNL1        0.0000
     16 H          -0.7363    1.5138    9.1617 H       1  UNL1        0.0000
@<TRIPOS>BOND
     1    16    13    1
     2    15    13    1
     3    14    13    1
     4    13     1    1
     5     6     5    1
     6     7     5    1
     7     1     5    1
     8     1     9    1
     9     1     2    1
    10    12     9    1
    11     3     2    1
    12     5     8    1
    13     9    11    1
    14     9    10    1
    15     2     4    1
