@<TRIPOS>MOLECULE
3
 35 34 0 0 0
SMALL
GASTEIGER

@<TRIPOS>ATOM
      1 SE          8.8893    8.7655    0.8869 Se      1  UNL1        0.0000
      2 SI         11.4463   10.7101    4.5901 Si      1  UNL1        0.0000
      3 C           7.6454    7.8733    1.8579 C.3     1  UNL1        0.0000
      4 C           9.8256    9.4855    2.2899 C.1     1  UNL1        0.0000
      5 C          10.4757    9.9695    3.1888 C.1     1  UNL1        0.0000
      6 C          10.2145   10.9771    6.0368 C.3     1  UNL1        0.0000
      7 H          10.7647   11.2898    6.9309 H       1  UNL1        0.0000
      8 C          12.1239   12.3765    3.9112 C.3     1  UNL1        0.0000
      9 H          11.2696   13.0155    3.6690 H       1  UNL1        0.0000
     10 C           9.4784    9.6816    6.3658 C.3     1  UNL1        0.0000
     11 H           8.9171    9.3422    5.4980 H       1  UNL1        0.0000
     12 H           8.7820    9.8361    7.1896 H       1  UNL1        0.0000
     13 H          10.1703    8.8931    6.6494 H       1  UNL1        0.0000
     14 C          12.5831    8.0775    4.6514 C.3     1  UNL1        0.0000
     15 H          11.7068    7.7142    5.1802 H       1  UNL1        0.0000
     16 H          13.4240    7.4279    4.8932 H       1  UNL1        0.0000
     17 H          12.3817    8.0006    3.5863 H       1  UNL1        0.0000
     18 C          12.8952    9.5215    5.0367 C.3     1  UNL1        0.0000
     19 H          13.7710    9.8284    4.4547 H       1  UNL1        0.0000
     20 C          12.9824   13.1111    4.9375 C.3     1  UNL1        0.0000
     21 H          12.4254   13.2931    5.8540 H       1  UNL1        0.0000
     22 H          13.3125   14.0724    4.5443 H       1  UNL1        0.0000
     23 H          13.8680   12.5283    5.1821 H       1  UNL1        0.0000
     24 C           9.1960   12.0659    5.7081 C.3     1  UNL1        0.0000
     25 H           9.6846   13.0175    5.5150 H       1  UNL1        0.0000
     26 H           8.5037   12.2018    6.5385 H       1  UNL1        0.0000
     27 H           8.6204   11.7871    4.8294 H       1  UNL1        0.0000
     28 C          12.9113   12.1672    2.6210 C.3     1  UNL1        0.0000
     29 H          13.7939   11.5580    2.8020 H       1  UNL1        0.0000
     30 H          13.2391   13.1220    2.2114 H       1  UNL1        0.0000
     31 H          12.2978   11.6646    1.8775 H       1  UNL1        0.0000
     32 C          13.2819    9.5984    6.5135 C.3     1  UNL1        0.0000
     33 H          13.5251   10.6174    6.8060 H       1  UNL1        0.0000
     34 H          14.1519    8.9722    6.7109 H       1  UNL1        0.0000
     35 H          12.4675    9.2475    7.1428 H       1  UNL1        0.0000
@<TRIPOS>BOND
     1     1     3    1
     2     1     4    1
     3    31    28    1
     4    30    28    1
     5     4     5    3
     6    28    29    1
     7    28     8    1
     8     5     2    1
     9    17    14    1
    10     9     8    1
    11     8     2    1
    12     8    20    1
    13    19    18    1
    14    22    20    1
    15     2    18    1
    16     2     6    1
    17    14    16    1
    18    14    18    1
    19    14    15    1
    20    27    24    1
    21    20    23    1
    22    20    21    1
    23    18    32    1
    24    11    10    1
    25    25    24    1
    26    24     6    1
    27    24    26    1
    28     6    10    1
    29     6     7    1
    30    10    13    1
    31    10    12    1
    32    32    34    1
    33    32    33    1
    34    32    35    1
