@<TRIPOS>MOLECULE
3
 38 40 0 0 0
SMALL
GASTEIGER

@<TRIPOS>ATOM
      1 SE          6.2083    4.4464   12.7414 Se      1  UNL1        0.0000
      2 SI          6.5413    0.5676    9.7664 Si      1  UNL1        0.0000
      3 C           4.7857    3.8041   13.6648 C.3     1  UNL1        0.0000
      4 C           6.3924    3.0196   11.5976 C.1     1  UNL1        0.0000
      5 C           6.4896    2.0691   10.8535 C.1     1  UNL1        0.0000
      6 C           5.6372    0.9690    8.1517 C.ar    1  UNL1        0.0000
      7 C           5.6364   -0.8130   10.6910 C.ar    1  UNL1        0.0000
      8 C           8.3385    0.0975    9.4144 C.ar    1  UNL1        0.0000
      9 C           8.7561   -1.2293    9.4422 C.ar    1  UNL1        0.0000
     10 H           8.0455   -2.0040    9.6965 H       1  UNL1        0.0000
     11 C           6.0187   -1.1471   11.9870 C.ar    1  UNL1        0.0000
     12 H           6.8447   -0.6246   12.4453 H       1  UNL1        0.0000
     13 C           9.2725    1.0775    9.0921 C.ar    1  UNL1        0.0000
     14 H           8.9635    2.1129    9.0714 H       1  UNL1        0.0000
     15 C           4.2549    1.5149    5.7880 C.ar    1  UNL1        0.0000
     16 H           3.7197    1.7257    4.8732 H       1  UNL1        0.0000
     17 C           4.5653   -1.4932   10.1213 C.ar    1  UNL1        0.0000
     18 H           4.2557   -1.2474    9.1144 H       1  UNL1        0.0000
     19 C           4.4903    1.7570    8.1614 C.ar    1  UNL1        0.0000
     20 H           4.1406    2.1642    9.0992 H       1  UNL1        0.0000
     21 C           4.2769   -2.7893   12.1174 C.ar    1  UNL1        0.0000
     22 H           3.7474   -3.5518   12.6707 H       1  UNL1        0.0000
     23 C           3.8035    2.0290    6.9924 C.ar    1  UNL1        0.0000
     24 H           2.9148    2.6437    7.0182 H       1  UNL1        0.0000
     25 C          10.9823   -0.5825    8.8322 C.ar    1  UNL1        0.0000
     26 H          12.0056   -0.8459    8.6063 H       1  UNL1        0.0000
     27 C           5.3970    0.7325    5.7605 C.ar    1  UNL1        0.0000
     28 H           5.7551    0.3318    4.8227 H       1  UNL1        0.0000
     29 C          10.5831    0.7437    8.8044 C.ar    1  UNL1        0.0000
     30 H          11.2962    1.5173    8.5574 H       1  UNL1        0.0000
     31 C           3.8904   -2.4744   10.8255 C.ar    1  UNL1        0.0000
     32 H           3.0598   -2.9936   10.3680 H       1  UNL1        0.0000
     33 C           5.3453   -2.1243   12.6967 C.ar    1  UNL1        0.0000
     34 H           5.6510   -2.3647   13.7047 H       1  UNL1        0.0000
     35 C           6.0800    0.4642    6.9333 C.ar    1  UNL1        0.0000
     36 H           6.9732   -0.1448    6.9048 H       1  UNL1        0.0000
     37 C          10.0655   -1.5693    9.1529 C.ar    1  UNL1        0.0000
     38 H          10.3729   -2.6054    9.1778 H       1  UNL1        0.0000
@<TRIPOS>BOND
     1    28    27    1
     2    16    15    1
     3    27    15   ar
     4    27    35   ar
     5    15    23   ar
     6    36    35    1
     7    35     6   ar
     8    23    24    1
     9    23    19   ar
    10     6    19   ar
    11     6     2    1
    12    19    20    1
    13    30    29    1
    14    26    25    1
    15    29    25   ar
    16    29    13   ar
    17    25    37   ar
    18    14    13    1
    19    13     8   ar
    20    18    17    1
    21    37    38    1
    22    37     9   ar
    23     8     9   ar
    24     8     2    1
    25     9    10    1
    26     2     7    1
    27     2     5    1
    28    17     7   ar
    29    17    31   ar
    30    32    31    1
    31     7    11   ar
    32    31    21   ar
    33     5     4    3
    34     4     1    1
    35    11    12    1
    36    11    33   ar
    37    21    22    1
    38    21    33   ar
    39    33    34    1
    40     1     3    1
