@<TRIPOS>MOLECULE
2
 16 15 0 0 0
SMALL
GASTEIGER

@<TRIPOS>ATOM
      1 SI          7.8136    5.7523    2.0145 Si      1  UNL1        0.0000
      2 C           6.8621    5.6523    3.6490 C.3     1  UNL1        0.0000
      3 H           5.9229    6.2079    3.5755 H       1  UNL1        0.0000
      4 H           7.4478    6.1184    4.4472 H       1  UNL1        0.0000
      5 C           6.6074    5.7761    0.5260 C.3     1  UNL1        0.0000
      6 H           5.8955    4.9551    0.5547 H       1  UNL1        0.0000
      7 H           6.0378    6.7007    0.5093 H       1  UNL1        0.0000
      8 H           7.1476    5.7114   -0.4141 H       1  UNL1        0.0000
      9 C           8.8551    7.3577    1.9459 C.3     1  UNL1        0.0000
     10 H           9.6191    7.3739    2.7172 H       1  UNL1        0.0000
     11 H           9.3547    7.4570    0.9875 H       1  UNL1        0.0000
     12 H           8.2327    8.2361    2.0827 H       1  UNL1        0.0000
     13 C           9.0264    4.2826    1.8059 C.3     1  UNL1        0.0000
     14 H           9.6016    4.1152    2.7147 H       1  UNL1        0.0000
     15 H           8.5018    3.3594    1.5683 H       1  UNL1        0.0000
     16 H           9.7349    4.4673    1.0028 H       1  UNL1        0.0000
@<TRIPOS>BOND
     1     8     5    1
     2     7     5    1
     3     5     6    1
     4     5     1    1
     5    11     9    1
     6    16    13    1
     7    15    13    1
     8    13     1    1
     9    13    14    1
    10     9     1    1
    11     9    12    1
    12     9    10    1
    13     1     2    1
    14     3     2    1
    15     2     4    1
