@<TRIPOS>MOLECULE
2
 16 15 0 0 0
SMALL
GASTEIGER

@<TRIPOS>ATOM
      1 SI          3.5113    3.1212    2.6047 Si      1  UNL1        0.0000
      2 C           5.3592    2.7035    2.7250 C.3     1  UNL1        0.0000
      3 H           5.8728    2.9740    1.7932 H       1  UNL1        0.0000
      4 H           5.4707    1.6208    2.8505 H       1  UNL1        0.0000
      5 C           2.8234    2.5619    0.9028 C.3     1  UNL1        0.0000
      6 H           3.3293    3.0630    0.0829 H       1  UNL1        0.0000
      7 H           2.9412    1.4929    0.7568 H       1  UNL1        0.0000
      8 H           1.7657    2.7885    0.8195 H       1  UNL1        0.0000
      9 C           3.2197    5.0048    2.7713 C.3     1  UNL1        0.0000
     10 H           3.7533    5.5653    2.0083 H       1  UNL1        0.0000
     11 H           2.1654    5.2477    2.6773 H       1  UNL1        0.0000
     12 H           3.5558    5.3567    3.7439 H       1  UNL1        0.0000
     13 C           2.5356    2.2057    3.9745 C.3     1  UNL1        0.0000
     14 H           2.7898    1.1503    4.0091 H       1  UNL1        0.0000
     15 H           2.7481    2.6267    4.9530 H       1  UNL1        0.0000
     16 H           1.4653    2.2800    3.8087 H       1  UNL1        0.0000
@<TRIPOS>BOND
     1     6     5    1
     2     7     5    1
     3     8     5    1
     4     5     1    1
     5     3     2    1
     6    10     9    1
     7     1     2    1
     8     1     9    1
     9     1    13    1
    10    11     9    1
    11     2     4    1
    12     9    12    1
    13    16    13    1
    14    13    14    1
    15    13    15    1
