@<TRIPOS>MOLECULE
2
 26 26 0 0 0
SMALL
GASTEIGER

@<TRIPOS>ATOM
      1 SI         -0.8448   17.5887   13.3423 Si      1  UNL1        0.0000
      2 C          -2.3895   15.3658   13.0853 C.3     1  UNL1        0.0000
      3 C          -2.2763   16.5589   12.5903 C.3     1  UNL1        0.0000
      4 C          -3.1576   17.1172   11.5669 C.ar    1  UNL1        0.0000
      5 C          -3.6828   16.2671   10.5934 C.ar    1  UNL1        0.0000
      6 H          -3.4137   15.2223   10.6221 H       1  UNL1        0.0000
      7 C          -4.5332   16.7506    9.6191 C.ar    1  UNL1        0.0000
      8 H          -4.9329   16.0784    8.8732 H       1  UNL1        0.0000
      9 C          -4.8756   18.0931    9.5962 C.ar    1  UNL1        0.0000
     10 H          -5.5389   18.4734    8.8334 H       1  UNL1        0.0000
     11 C          -4.3639   18.9435   10.5618 C.ar    1  UNL1        0.0000
     12 H          -4.6329   19.9903   10.5552 H       1  UNL1        0.0000
     13 C          -3.5119   18.4626   11.5389 C.ar    1  UNL1        0.0000
     14 H          -3.1349   19.1312   12.2975 H       1  UNL1        0.0000
     15 C          -1.5189   18.6331   14.7912 C.3     1  UNL1        0.0000
     16 H          -1.9046   17.9813   15.5690 H       1  UNL1        0.0000
     17 H          -2.3241   19.2979   14.4951 H       1  UNL1        0.0000
     18 H          -0.7341   19.2433   15.2287 H       1  UNL1        0.0000
     19 C          -0.0848   18.6673   11.9604 C.3     1  UNL1        0.0000
     20 H           0.7463   19.2494   12.3459 H       1  UNL1        0.0000
     21 H          -0.8034   19.3599   11.5365 H       1  UNL1        0.0000
     22 H           0.2924   18.0537   11.1479 H       1  UNL1        0.0000
     23 C           0.4836   16.4006   14.0078 C.3     1  UNL1        0.0000
     24 H           0.9865   16.8179   14.8738 H       1  UNL1        0.0000
     25 H           1.2401   16.1797   13.2623 H       1  UNL1        0.0000
     26 H           0.0184   15.4658   14.3068 H       1  UNL1        0.0000
@<TRIPOS>BOND
     1    10     9    1
     2     8     7    1
     3     9     7   ar
     4     9    11   ar
     5     7     5   ar
     6    12    11    1
     7    11    13   ar
     8     5     6    1
     9     5     4   ar
    10    22    19    1
    11    21    19    1
    12    13     4   ar
    13    13    14    1
    14     4     3    1
    15    19    20    1
    16    19     1    1
    17     3     2    1
    18     3     1    1
    19    25    23    1
    20     1    23    1
    21     1    15    1
    22    23    26    1
    23    23    24    1
    24    17    15    1
    25    15    18    1
    26    15    16    1
