@<TRIPOS>MOLECULE
2
 16 15 0 0 0
SMALL
GASTEIGER

@<TRIPOS>ATOM
      1 SI         16.5836   12.0890    7.2874 Si      1  UNL1        0.0000
      2 C          17.0075   10.9096    5.8881 C.3     1  UNL1        0.0000
      3 H          17.6894   10.1320    6.2204 H       1  UNL1        0.0000
      4 H          17.5589   11.4984    5.1419 H       1  UNL1        0.0000
      5 C          15.0618   13.0900    6.6755 C.3     1  UNL1        0.0000
      6 H          15.3717   14.0139    6.1971 H       1  UNL1        0.0000
      7 H          14.3788   13.3563    7.4764 H       1  UNL1        0.0000
      8 H          14.5058   12.5109    5.9341 H       1  UNL1        0.0000
      9 C          17.9673   13.3607    7.6734 C.3     1  UNL1        0.0000
     10 H          18.8503   12.8707    8.0722 H       1  UNL1        0.0000
     11 H          17.6432   14.0968    8.4037 H       1  UNL1        0.0000
     12 H          18.2689   13.8984    6.7794 H       1  UNL1        0.0000
     13 C          16.1991   11.2257    8.9551 C.3     1  UNL1        0.0000
     14 H          15.1385   11.0590    9.1060 H       1  UNL1        0.0000
     15 H          16.5558   11.8211    9.7899 H       1  UNL1        0.0000
     16 H          16.6872   10.2582    9.0149 H       1  UNL1        0.0000
@<TRIPOS>BOND
     1     4     2    1
     2     2     3    1
     3     2     1    1
     4     8     5    1
     5     6     5    1
     6     5     1    1
     7     5     7    1
     8    12     9    1
     9     1     9    1
    10     1    13    1
    11     9    10    1
    12     9    11    1
    13    13    16    1
    14    13    14    1
    15    13    15    1
