@<TRIPOS>MOLECULE
2
 16 15 0 0 0
SMALL
GASTEIGER

@<TRIPOS>ATOM
      1 SI         14.1075   12.0890    2.2776 Si      1  UNL1        0.0000
      2 C          13.6836   10.9095    3.6769 C.3     1  UNL1        0.0000
      3 H          13.0017   10.1319    3.3445 H       1  UNL1        0.0000
      4 H          13.1320   11.4985    4.4228 H       1  UNL1        0.0000
      5 C          15.6291   13.0902    2.8897 C.3     1  UNL1        0.0000
      6 H          15.3191   14.0144    3.3672 H       1  UNL1        0.0000
      7 H          16.3127   13.3559    2.0890 H       1  UNL1        0.0000
      8 H          16.1846   12.5116    3.6318 H       1  UNL1        0.0000
      9 C          12.7236   13.3605    1.8915 C.3     1  UNL1        0.0000
     10 H          11.8406   12.8702    1.4927 H       1  UNL1        0.0000
     11 H          13.0475   14.0965    1.1612 H       1  UNL1        0.0000
     12 H          12.4218   13.8981    2.7855 H       1  UNL1        0.0000
     13 C          14.4922   11.2257    0.6100 C.3     1  UNL1        0.0000
     14 H          15.5528   11.0591    0.4591 H       1  UNL1        0.0000
     15 H          14.1355   11.8210   -0.2249 H       1  UNL1        0.0000
     16 H          14.0042   10.2581    0.5503 H       1  UNL1        0.0000
@<TRIPOS>BOND
     1    15    13    1
     2    14    13    1
     3    16    13    1
     4    13     1    1
     5    11     9    1
     6    10     9    1
     7     9     1    1
     8     9    12    1
     9     7     5    1
    10     1     5    1
    11     1     2    1
    12     5     6    1
    13     5     8    1
    14     3     2    1
    15     2     4    1
