@<TRIPOS>MOLECULE
1
 4 3 0 0 0
SMALL
GASTEIGER

@<TRIPOS>ATOM
      1 C          -1.5380    0.3644    5.5932 C.3     1  UNL1       -0.0681
      2 H          -1.2614   -0.6923    5.4985 H       1  UNL1        0.0227
      3 H          -2.6036    0.4392    5.3303 H       1  UNL1        0.0227
      4 H          -1.4503    0.6227    6.6556 H       1  UNL1        0.0227
@<TRIPOS>BOND
     1     3     1    1
     2     2     1    1
     3     1     4    1
