@<TRIPOS>MOLECULE
1
 4 3 0 0 0
SMALL
GASTEIGER

@<TRIPOS>ATOM
      1 C           0.7355    0.3644    3.2756 C.3     1  UNL1       -0.0681
      2 H           0.4590   -0.6923    3.3702 H       1  UNL1        0.0227
      3 H           1.8012    0.4392    3.5385 H       1  UNL1        0.0227
      4 H           0.6479    0.6227    2.2132 H       1  UNL1        0.0227
@<TRIPOS>BOND
     1     4     1    1
     2     1     2    1
     3     1     3    1
