@<TRIPOS>MOLECULE
2
 16 15 0 0 0
SMALL
GASTEIGER

@<TRIPOS>ATOM
      1 SI         11.1884    4.4794   -1.8826 Si      1  UNL1        0.0000
      2 C          10.7367    2.7399   -1.3075 C.3     1  UNL1        0.0000
      3 H          11.6763    2.1788   -1.1634 H       1  UNL1        0.0000
      4 H          10.2577    2.2470   -2.1723 H       1  UNL1        0.0000
      5 C          12.1848    5.4023   -0.5294 C.3     1  UNL1        0.0000
      6 H          11.6652    5.3686    0.4242 H       1  UNL1        0.0000
      7 H          12.3283    6.4467   -0.7880 H       1  UNL1        0.0000
      8 H          13.1698    4.9661   -0.3904 H       1  UNL1        0.0000
      9 C           9.5748    5.4492   -2.2358 C.3     1  UNL1        0.0000
     10 H           9.0723    5.0640   -3.1179 H       1  UNL1        0.0000
     11 H           9.7663    6.5038   -2.4067 H       1  UNL1        0.0000
     12 H           8.8853    5.3640   -1.3990 H       1  UNL1        0.0000
     13 C          12.2563    4.5540   -3.4806 C.3     1  UNL1        0.0000
     14 H          13.2070    4.0462   -3.3452 H       1  UNL1        0.0000
     15 H          12.4727    5.5772   -3.7734 H       1  UNL1        0.0000
     16 H          11.7495    4.0772   -4.3146 H       1  UNL1        0.0000
@<TRIPOS>BOND
     1    16    13    1
     2    15    13    1
     3    13    14    1
     4    13     1    1
     5    10     9    1
     6    11     9    1
     7     9     1    1
     8     9    12    1
     9     4     2    1
    10     1     2    1
    11     1     5    1
    12     2     3    1
    13     7     5    1
    14     5     8    1
    15     5     6    1
