@<TRIPOS>MOLECULE
2
 16 15 0 0 0
SMALL
GASTEIGER

@<TRIPOS>ATOM
      1 SI          7.2929    5.1718    1.6523 Si      1  UNL1        0.0000
      2 C           7.4547    3.5154    0.7555 C.3     1  UNL1        0.0000
      3 H           7.1416    3.7077   -0.2835 H       1  UNL1        0.0000
      4 H           6.6880    2.8257    1.1537 H       1  UNL1        0.0000
      5 C           6.5052    5.0424    3.3962 C.3     1  UNL1        0.0000
      6 H           5.6153    4.4197    3.3930 H       1  UNL1        0.0000
      7 H           6.2116    6.0221    3.7609 H       1  UNL1        0.0000
      8 H           7.2062    4.6272    4.1128 H       1  UNL1        0.0000
      9 C           9.0195    5.9745    1.8700 C.3     1  UNL1        0.0000
     10 H           9.7311    5.2451    2.2533 H       1  UNL1        0.0000
     11 H           8.9937    6.8060    2.5682 H       1  UNL1        0.0000
     12 H           9.4010    6.3509    0.9256 H       1  UNL1        0.0000
     13 C           6.2214    6.4292    0.6730 C.3     1  UNL1        0.0000
     14 H           6.6076    6.5656   -0.3327 H       1  UNL1        0.0000
     15 H           6.2041    7.4043    1.1503 H       1  UNL1        0.0000
     16 H           5.1939    6.0900    0.5833 H       1  UNL1        0.0000
@<TRIPOS>BOND
     1    14    13    1
     2     3     2    1
     3    16    13    1
     4    13    15    1
     5    13     1    1
     6     2     4    1
     7     2     1    1
     8    12     9    1
     9     1     9    1
    10     1     5    1
    11     9    10    1
    12     9    11    1
    13     6     5    1
    14     5     7    1
    15     5     8    1
