@<TRIPOS>MOLECULE
2
 27 27 0 0 0
SMALL
GASTEIGER

@<TRIPOS>ATOM
      1 SI         -6.5409    4.5507    9.8752 Si      1  UNL1        0.0000
      2 C          -3.6156    3.4821   17.9479 C.1     1  UNL1        0.0000
      3 C          -4.4727    3.9998   17.2679 C.1     1  UNL1        0.0000
      4 C          -5.5002    4.5805   16.4824 C.ar    1  UNL1        0.0000
      5 C          -6.5251    5.3066   17.0947 C.ar    1  UNL1        0.0000
      6 H          -6.5197    5.4200   18.1687 H       1  UNL1        0.0000
      7 C          -7.5290    5.8710   16.3302 C.ar    1  UNL1        0.0000
      8 H          -8.3178    6.4322   16.8112 H       1  UNL1        0.0000
      9 C          -7.5328    5.7246   14.9551 C.ar    1  UNL1        0.0000
     10 H          -8.3153    6.1643   14.3542 H       1  UNL1        0.0000
     11 C          -6.5135    5.0017   14.3314 C.ar    1  UNL1        0.0000
     12 C          -5.5006    4.4315   15.0977 C.ar    1  UNL1        0.0000
     13 H          -4.7113    3.8749   14.6118 H       1  UNL1        0.0000
     14 C          -6.5116    4.8518   12.9241 C.1     1  UNL1        0.0000
     15 C          -6.5170    4.7246   11.7209 C.1     1  UNL1        0.0000
     16 C          -4.7527    4.6817    9.2251 C.3     1  UNL1        0.0000
     17 H          -4.7159    4.5956    8.1426 H       1  UNL1        0.0000
     18 H          -4.3064    5.6341    9.4948 H       1  UNL1        0.0000
     19 H          -4.1254    3.8978    9.6388 H       1  UNL1        0.0000
     20 C          -7.6149    5.9485    9.1486 C.3     1  UNL1        0.0000
     21 H          -7.6692    5.8875    8.0651 H       1  UNL1        0.0000
     22 H          -8.6299    5.9020    9.5318 H       1  UNL1        0.0000
     23 H          -7.2135    6.9247    9.4036 H       1  UNL1        0.0000
     24 C          -7.2820    2.8493    9.4341 C.3     1  UNL1        0.0000
     25 H          -7.3346    2.7055    8.3585 H       1  UNL1        0.0000
     26 H          -6.6845    2.0413    9.8457 H       1  UNL1        0.0000
     27 H          -8.2881    2.7461    9.8295 H       1  UNL1        0.0000
@<TRIPOS>BOND
     1    21    20    1
     2    17    16    1
     3    25    24    1
     4    20    23    1
     5    20    22    1
     6    20     1    1
     7    16    18    1
     8    16    19    1
     9    16     1    1
    10    24    27    1
    11    24    26    1
    12    24     1    1
    13     1    15    1
    14    15    14    3
    15    14    11    1
    16    11     9   ar
    17    11    12   ar
    18    10     9    1
    19    13    12    1
    20     9     7   ar
    21    12     4   ar
    22     7     8    1
    23     7     5   ar
    24     4     5   ar
    25     4     3    1
    26     5     6    1
    27     3     2    3
