@<TRIPOS>MOLECULE
2
 27 27 0 0 0
SMALL
GASTEIGER

@<TRIPOS>ATOM
      1 SI         19.6761   -4.2816    0.0231 Si      1  UNL1        0.0000
      2 C          11.6397    0.5016    3.2500 C.1     1  UNL1        0.0000
      3 C          12.6264   -0.0742    2.8507 C.1     1  UNL1        0.0000
      4 C          13.7753   -0.7628    2.3923 C.ar    1  UNL1        0.0000
      5 C          14.5089   -0.2688    1.3099 C.ar    1  UNL1        0.0000
      6 H          14.1869    0.6443    0.8304 H       1  UNL1        0.0000
      7 C          15.6266   -0.9372    0.8618 C.ar    1  UNL1        0.0000
      8 H          16.1942   -0.5559    0.0250 H       1  UNL1        0.0000
      9 C          16.0404   -2.1179    1.4848 C.ar    1  UNL1        0.0000
     10 C          15.3080   -2.6137    2.5665 C.ar    1  UNL1        0.0000
     11 H          15.6293   -3.5266    3.0477 H       1  UNL1        0.0000
     12 C          14.1899   -1.9444    3.0132 C.ar    1  UNL1        0.0000
     13 H          13.6240   -2.3280    3.8504 H       1  UNL1        0.0000
     14 C          17.1876   -2.8026    1.0257 C.1     1  UNL1        0.0000
     15 C          18.1697   -3.3911    0.6329 C.1     1  UNL1        0.0000
     16 C          21.1599   -3.7951    1.1184 C.3     1  UNL1        0.0000
     17 H          22.0719   -4.2899    0.7958 H       1  UNL1        0.0000
     18 H          21.3369   -2.7243    1.0854 H       1  UNL1        0.0000
     19 H          20.9876   -4.0659    2.1557 H       1  UNL1        0.0000
     20 C          19.3619   -6.1596    0.1359 C.3     1  UNL1        0.0000
     21 H          20.2201   -6.7283   -0.2111 H       1  UNL1        0.0000
     22 H          19.1583   -6.4625    1.1586 H       1  UNL1        0.0000
     23 H          18.5077   -6.4513   -0.4678 H       1  UNL1        0.0000
     24 C          19.9940   -3.7702   -1.7863 C.3     1  UNL1        0.0000
     25 H          20.8730   -4.2637   -2.1916 H       1  UNL1        0.0000
     26 H          19.1505   -4.0268   -2.4203 H       1  UNL1        0.0000
     27 H          20.1508   -2.6989   -1.8685 H       1  UNL1        0.0000
@<TRIPOS>BOND
     1    26    24    1
     2    25    24    1
     3    27    24    1
     4    24     1    1
     5    23    20    1
     6    21    20    1
     7     1    20    1
     8     1    15    1
     9     1    16    1
    10     8     7    1
    11    20    22    1
    12    15    14    3
    13    17    16    1
    14     6     5    1
    15     7     5   ar
    16     7     9   ar
    17    14     9    1
    18    18    16    1
    19    16    19    1
    20     5     4   ar
    21     9    10   ar
    22     4     3    1
    23     4    12   ar
    24    10    12   ar
    25    10    11    1
    26     3     2    3
    27    12    13    1
