@<TRIPOS>MOLECULE
6
 23 23 0 0 0
SMALL
GASTEIGER

@<TRIPOS>ATOM
      1 SI          0.4804    3.9676   -1.3552 Si      1  UNL1        0.0000
      2 C          -1.4285    3.9945   -1.4444 C.ar    1  UNL1        0.0000
      3 C          -4.2275    4.1003   -1.5549 C.ar    1  UNL1        0.0000
      4 C          -2.1879    4.2584   -0.3083 C.ar    1  UNL1        0.0000
      5 C          -2.1112    3.7873   -2.6382 C.ar    1  UNL1        0.0000
      6 C           1.0347    2.8812    0.0933 C.3     1  UNL1        0.0000
      7 C          -3.5689    4.3117   -0.3556 C.ar    1  UNL1        0.0000
      8 C          -3.4925    3.8381   -2.6982 C.ar    1  UNL1        0.0000
      9 C           1.0086    5.7892   -1.0838 C.3     1  UNL1        0.0000
     10 C           1.2224    3.2839   -2.9674 C.3     1  UNL1        0.0000
     11 H          -5.3067    4.1408   -1.5974 H       1  UNL1        0.0000
     12 H          -1.6857    4.4283    0.6343 H       1  UNL1        0.0000
     13 H          -1.5481    3.5851   -3.5368 H       1  UNL1        0.0000
     14 H           0.5432    1.9082   -0.0259 H       1  UNL1        0.0000
     15 H           0.6515    3.3071    1.0320 H       1  UNL1        0.0000
     16 H          -4.1353    4.5193    0.5421 H       1  UNL1        0.0000
     17 H          -3.9997    3.6740   -3.6389 H       1  UNL1        0.0000
     18 H           0.8037    6.3901   -1.9644 H       1  UNL1        0.0000
     19 H           2.0733    5.8435   -0.8829 H       1  UNL1        0.0000
     20 H           0.4756    6.2440   -0.2529 H       1  UNL1        0.0000
     21 H           1.2206    4.0131   -3.7704 H       1  UNL1        0.0000
     22 H           0.7015    2.3969   -3.3136 H       1  UNL1        0.0000
     23 H           2.2535    3.0033   -2.7613 H       1  UNL1        0.0000
@<TRIPOS>BOND
     1    21    10    1
     2    17     8    1
     3    13     5    1
     4    22    10    1
     5    10    23    1
     6    10     1    1
     7     8     5   ar
     8     8     3   ar
     9     5     2   ar
    10    18     9    1
    11    11     3    1
    12     3     7   ar
    13     2     1    1
    14     2     4   ar
    15     1     9    1
    16     1     6    1
    17     9    19    1
    18     9    20    1
    19     7     4   ar
    20     7    16    1
    21     4    12    1
    22    14     6    1
    23     6    15    1
