@<TRIPOS>MOLECULE
1
 4 3 0 0 0
SMALL
GASTEIGER

@<TRIPOS>ATOM
      1 C          -1.9914    4.0501    2.5801 C.3     1  UNL1       -0.0681
      2 H          -1.5557    4.7391    1.8407 H       1  UNL1        0.0227
      3 H          -2.8635    3.5724    2.1023 H       1  UNL1        0.0227
      4 H          -2.3751    4.6763    3.3992 H       1  UNL1        0.0227
@<TRIPOS>BOND
     1     2     1    1
     2     3     1    1
     3     1     4    1
