@<TRIPOS>MOLECULE
1
 4 3 0 0 0
SMALL
GASTEIGER

@<TRIPOS>ATOM
      1 C           0.8546    4.0503    3.9214 C.3     1  UNL1       -0.0681
      2 H           0.4188    4.7387    4.6613 H       1  UNL1        0.0227
      3 H           1.7270    3.5726    4.3987 H       1  UNL1        0.0227
      4 H           1.2376    4.6771    3.1025 H       1  UNL1        0.0227
@<TRIPOS>BOND
     1     4     1    1
     2     1     3    1
     3     1     2    1
