@<TRIPOS>MOLECULE
1
 7 6 0 0 0
SMALL
GASTEIGER

@<TRIPOS>ATOM
      1 C           2.2426   13.0461    6.0673 C.3     1  UNL1       -0.0562
      2 C           2.4169   14.3831    6.7904 C.3     1  UNL1       -0.0653
      3 H           2.0856   12.2844    6.8376 H       1  UNL1        0.0263
      4 H           3.2040   12.8033    5.6119 H       1  UNL1        0.0263
      5 H           3.2947   14.3671    7.4429 H       1  UNL1        0.0230
      6 H           2.5536   15.1974    6.0769 H       1  UNL1        0.0230
      7 H           1.5507   14.5992    7.4145 H       1  UNL1        0.0230
@<TRIPOS>BOND
     1     4     1    1
     2     1     2    1
     3     1     3    1
     4     6     2    1
     5     2     7    1
     6     2     5    1
