@<TRIPOS>MOLECULE
1
 4 3 0 0 0
SMALL
GASTEIGER

@<TRIPOS>ATOM
      1 C           0.6053   10.7908    4.9084 C.3     1  UNL1       -0.0681
      2 H           0.2586   10.5822    5.9202 H       1  UNL1        0.0227
      3 H          -0.0260   10.2240    4.2284 H       1  UNL1        0.0227
      4 H           1.6097   10.3739    4.8365 H       1  UNL1        0.0227
@<TRIPOS>BOND
     1     3     1    1
     2     4     1    1
     3     1     2    1
