@<TRIPOS>MOLECULE
1
 14 14 0 0 0
SMALL
GASTEIGER

@<TRIPOS>ATOM
      1 C           3.6071    2.4744    3.6757 C.3     1  UNL1       -0.0237
      2 C           2.4512    1.5984    3.4519 C.ar    1  UNL1       -0.0470
      3 C           2.5949    0.2949    2.9604 C.ar    1  UNL1       -0.0586
      4 C           1.5014   -0.5316    2.7866 C.ar    1  UNL1       -0.0615
      5 C           0.2288   -0.0847    3.1022 C.ar    1  UNL1       -0.0617
      6 C           0.0650    1.1996    3.5998 C.ar    1  UNL1       -0.0615
      7 C           1.1569    2.0248    3.7772 C.ar    1  UNL1       -0.0586
      8 H           4.5183    1.8832    3.8436 H       1  UNL1        0.0316
      9 H           3.4207    3.1196    4.5427 H       1  UNL1        0.0316
     10 H           3.5864   -0.0784    2.7335 H       1  UNL1        0.0620
     11 H           1.6410   -1.5353    2.4105 H       1  UNL1        0.0618
     12 H          -0.6248   -0.7326    2.9710 H       1  UNL1        0.0618
     13 H          -0.9235    1.5508    3.8618 H       1  UNL1        0.0618
     14 H           1.0234    3.0174    4.1878 H       1  UNL1        0.0620
@<TRIPOS>BOND
     1    11     4    1
     2    10     3    1
     3     4     3   ar
     4     4     5   ar
     5     3     2   ar
     6    12     5    1
     7     5     6   ar
     8     2     1    1
     9     2     7   ar
    10     6     7   ar
    11     6    13    1
    12     1     8    1
    13     1     9    1
    14     7    14    1
