@<TRIPOS>MOLECULE
1
 14 14 0 0 0
SMALL
GASTEIGER

@<TRIPOS>ATOM
      1 C           4.7566    2.5078    0.6637 C.3     1  UNL1       -0.0237
      2 C           6.1584    2.1045    0.8339 C.ar    1  UNL1       -0.0470
      3 C           6.5003    0.8980    1.4585 C.ar    1  UNL1       -0.0586
      4 C           7.8166    0.4953    1.5742 C.ar    1  UNL1       -0.0615
      5 C           8.8367    1.2845    1.0686 C.ar    1  UNL1       -0.0617
      6 C           8.5206    2.4788    0.4395 C.ar    1  UNL1       -0.0615
      7 C           7.2049    2.8789    0.3180 C.ar    1  UNL1       -0.0586
      8 H           4.1143    1.6172    0.6581 H       1  UNL1        0.0316
      9 H           4.6358    3.0411   -0.2885 H       1  UNL1        0.0316
     10 H           5.7123    0.2590    1.8388 H       1  UNL1        0.0620
     11 H           8.0509   -0.4444    2.0541 H       1  UNL1        0.0618
     12 H           9.8653    0.9677    1.1545 H       1  UNL1        0.0618
     13 H           9.3092    3.0948    0.0300 H       1  UNL1        0.0618
     14 H           6.9702    3.8004   -0.1980 H       1  UNL1        0.0620
@<TRIPOS>BOND
     1     9     1    1
     2    14     7    1
     3    13     6    1
     4     7     6   ar
     5     7     2   ar
     6     6     5   ar
     7     8     1    1
     8     1     2    1
     9     2     3   ar
    10     5    12    1
    11     5     4   ar
    12     3     4   ar
    13     3    10    1
    14     4    11    1
