@<TRIPOS>MOLECULE
4
 16 15 0 0 0
SMALL
GASTEIGER

@<TRIPOS>ATOM
      1 SI          0.2163    3.8096    6.1404 Si      1  UNL1        0.0000
      2 N           0.2579    4.5218    3.5325 N.3     1  UNL1        0.0000
      3 N          -0.1187    5.2945    2.7702 N.3     1  UNL1        0.0000
      4 C           0.6768    3.6704    4.3351 C.3     1  UNL1        0.0000
      5 C           1.0186    2.3251    7.0453 C.3     1  UNL1        0.0000
      6 C           0.7747    5.4368    6.9860 C.3     1  UNL1        0.0000
      7 C          -1.6880    3.8145    6.3823 C.3     1  UNL1        0.0000
      8 H           1.7433    2.6548    7.7828 H       1  UNL1        0.0000
      9 H           1.5370    1.6860    6.3227 H       1  UNL1        0.0000
     10 H           0.2798    1.7197    7.5603 H       1  UNL1        0.0000
     11 H           1.8388    5.4578    7.1927 H       1  UNL1        0.0000
     12 H           0.2542    5.5748    7.9291 H       1  UNL1        0.0000
     13 H           0.5438    6.2924    6.3588 H       1  UNL1        0.0000
     14 H          -2.1858    2.9920    5.8783 H       1  UNL1        0.0000
     15 H          -2.1062    4.7343    5.9848 H       1  UNL1        0.0000
     16 H          -1.9508    3.7636    7.4348 H       1  UNL1        0.0000
@<TRIPOS>BOND
     1     3     2    1
     2     2     4    1
     3     4     1    1
     4    14     7    1
     5    15     7    1
     6     1     7    1
     7     1     6    1
     8     1     5    1
     9     9     5    1
    10    13     6    1
    11     7    16    1
    12     6    11    1
    13     6    12    1
    14     5    10    1
    15     5     8    1
