@<TRIPOS>MOLECULE
2
 16 15 0 0 0
SMALL
GASTEIGER

@<TRIPOS>ATOM
      1 SI         12.4478   11.3799    2.5998 Si      1  UNL1        0.0000
      2 C          10.6510   11.2246    2.0561 C.3     1  UNL1        0.0000
      3 C          13.2241   12.9606    1.8489 C.3     1  UNL1        0.0000
      4 C          13.4792    9.8528    2.0748 C.3     1  UNL1        0.0000
      5 C          12.6601   11.5250    4.5020 C.3     1  UNL1        0.0000
      6 H          10.3566   10.1746    2.1861 H       1  UNL1        0.0000
      7 H          10.0560   11.7810    2.7928 H       1  UNL1        0.0000
      8 H          13.3081   12.8828    0.7687 H       1  UNL1        0.0000
      9 H          12.6145   13.8318    2.0748 H       1  UNL1        0.0000
     10 H          14.2184   13.1461    2.2435 H       1  UNL1        0.0000
     11 H          13.3868    9.6403    1.0146 H       1  UNL1        0.0000
     12 H          14.5334   10.0023    2.2846 H       1  UNL1        0.0000
     13 H          13.1626    8.9654    2.6141 H       1  UNL1        0.0000
     14 H          12.2461   10.6607    5.0125 H       1  UNL1        0.0000
     15 H          13.7045   11.6041    4.7885 H       1  UNL1        0.0000
     16 H          12.1494   12.4037    4.8843 H       1  UNL1        0.0000
@<TRIPOS>BOND
     1     8     3    1
     2    11     4    1
     3     3     9    1
     4     3    10    1
     5     3     1    1
     6     2     6    1
     7     2     1    1
     8     2     7    1
     9     4    12    1
    10     4     1    1
    11     4    13    1
    12     1     5    1
    13     5    15    1
    14     5    16    1
    15     5    14    1
