@<TRIPOS>MOLECULE
2
 16 15 0 0 0
SMALL
GASTEIGER

@<TRIPOS>ATOM
      1 SI         12.5601   12.4125   -2.6763 Si      1  UNL1        0.0000
      2 C          10.7308   12.4050   -2.2279 C.3     1  UNL1        0.0000
      3 C          12.8755   12.2750   -4.5655 C.3     1  UNL1        0.0000
      4 C          13.4281   14.0328   -2.1309 C.3     1  UNL1        0.0000
      5 C          13.4561   10.9263   -1.8703 C.3     1  UNL1        0.0000
      6 H          10.3185   13.3703   -2.5513 H       1  UNL1        0.0000
      7 H          10.2592   11.6595   -2.8846 H       1  UNL1        0.0000
      8 H          12.4259   11.3735   -4.9708 H       1  UNL1        0.0000
      9 H          12.4483   13.1187   -5.0991 H       1  UNL1        0.0000
     10 H          13.9355   12.2439   -4.7991 H       1  UNL1        0.0000
     11 H          13.5043   14.1161   -1.0516 H       1  UNL1        0.0000
     12 H          14.4371   14.0810   -2.5280 H       1  UNL1        0.0000
     13 H          12.8956   14.9070   -2.4935 H       1  UNL1        0.0000
     14 H          13.3380   10.9336   -0.7905 H       1  UNL1        0.0000
     15 H          13.0594    9.9866   -2.2437 H       1  UNL1        0.0000
     16 H          14.5201   10.9388   -2.0851 H       1  UNL1        0.0000
@<TRIPOS>BOND
     1     9     3    1
     2     8     3    1
     3    10     3    1
     4     3     1    1
     5     7     2    1
     6     1     2    1
     7     1     4    1
     8     1     5    1
     9     6     2    1
    10    12     4    1
    11    13     4    1
    12    15     5    1
    13     4    11    1
    14    16     5    1
    15     5    14    1
