@<TRIPOS>MOLECULE
2,3,4,132,133
 134 135 0 0 0
SMALL
GASTEIGER

@<TRIPOS>ATOM
      1 SI          5.8768   -0.5213    4.9981 Si      1  UNL1        0.0000
      2 SI          5.6124   -0.3102    7.3359 Si      1  UNL1        0.0000
      3 SI          6.3101    1.9621    7.2709 Si      1  UNL1        0.0000
      4 SI          6.4654    1.7896    4.8823 Si      1  UNL1        0.0000
      5 SI          5.7187   -2.2333    3.3948 Si      1  UNL1        0.0000
      6 SI          5.1295   -2.1021    8.7537 Si      1  UNL1        0.0000
      7 SI          5.9458    3.4861    9.0222 Si      1  UNL1        0.0000
      8 SI          7.0972    3.3443    3.2251 Si      1  UNL1        0.0000
      9 O           8.3396   -2.4891    5.8903 O.3     1  UNL1        0.0000
     10 O           9.3043    0.6902    8.7586 O.3     1  UNL1        0.0000
     11 O           9.7719    1.2658    4.5800 O.3     1  UNL1        0.0000
     12 C           6.1198   -3.9615    4.1077 C.3     1  UNL1        0.0000
     13 H           5.5080   -4.1729    4.9764 H       1  UNL1        0.0000
     14 H           7.1567   -4.0197    4.4216 H       1  UNL1        0.0000
     15 H           5.9490   -4.7557    3.3858 H       1  UNL1        0.0000
     16 C           3.8315   -2.2392    2.9499 C.3     1  UNL1        0.0000
     17 C           3.5414   -3.1974    1.7978 C.3     1  UNL1        0.0000
     18 H           4.0237   -2.8665    0.8814 H       1  UNL1        0.0000
     19 H           2.4689   -3.2491    1.6079 H       1  UNL1        0.0000
     20 H           3.8872   -4.2027    2.0273 H       1  UNL1        0.0000
     21 C           3.3216   -0.8499    2.5773 C.3     1  UNL1        0.0000
     22 H           3.8093   -0.4779    1.6819 H       1  UNL1        0.0000
     23 H           3.4928   -0.1444    3.3884 H       1  UNL1        0.0000
     24 H           2.2502   -0.8855    2.3810 H       1  UNL1        0.0000
     25 C           3.0531   -2.7080    4.1774 C.3     1  UNL1        0.0000
     26 H           3.2628   -2.0686    5.0329 H       1  UNL1        0.0000
     27 H           3.3099   -3.7322    4.4331 H       1  UNL1        0.0000
     28 H           1.9818   -2.6728    3.9816 H       1  UNL1        0.0000
     29 C           6.9775   -1.9751    1.9344 C.3     1  UNL1        0.0000
     30 C           8.3029   -1.5134    2.5366 C.3     1  UNL1        0.0000
     31 H           8.6825   -2.2368    3.2537 H       1  UNL1        0.0000
     32 H           8.1948   -0.5577    3.0492 H       1  UNL1        0.0000
     33 H           9.0561   -1.3910    1.7585 H       1  UNL1        0.0000
     34 C           6.4954   -0.9114    0.9539 C.3     1  UNL1        0.0000
     35 H           5.6082   -1.2434    0.4201 H       1  UNL1        0.0000
     36 H           7.2675   -0.7013    0.2127 H       1  UNL1        0.0000
     37 H           6.2587    0.0123    1.4749 H       1  UNL1        0.0000
     38 C           7.2287   -3.2730    1.1642 C.3     1  UNL1        0.0000
     39 H           7.6870   -4.0234    1.8030 H       1  UNL1        0.0000
     40 H           7.9082   -3.0850    0.3323 H       1  UNL1        0.0000
     41 H           6.3056   -3.6794    0.7569 H       1  UNL1        0.0000
     42 C           5.1707   -3.7183    7.7344 C.3     1  UNL1        0.0000
     43 H           6.0935   -3.7790    7.1687 H       1  UNL1        0.0000
     44 H           4.3455   -3.7503    7.0307 H       1  UNL1        0.0000
     45 H           5.1097   -4.6071    8.3558 H       1  UNL1        0.0000
     46 C           3.2952   -1.8738    9.3347 C.3     1  UNL1        0.0000
     47 C           2.4382   -1.5059    8.1250 C.3     1  UNL1        0.0000
     48 H           2.4858   -2.2811    7.3654 H       1  UNL1        0.0000
     49 H           2.7672   -0.5691    7.6808 H       1  UNL1        0.0000
     50 H           1.3966   -1.3949    8.4241 H       1  UNL1        0.0000
     51 C           3.1674   -0.7555   10.3627 C.3     1  UNL1        0.0000
     52 H           3.7083   -0.9964   11.2743 H       1  UNL1        0.0000
     53 H           2.1219   -0.5991   10.6284 H       1  UNL1        0.0000
     54 H           3.5555    0.1763    9.9571 H       1  UNL1        0.0000
     55 C           2.7397   -3.1659    9.9313 C.3     1  UNL1        0.0000
     56 H           3.3020   -3.4764   10.8074 H       1  UNL1        0.0000
     57 H           2.7667   -3.9710    9.2017 H       1  UNL1        0.0000
     58 H           1.7018   -3.0243   10.2342 H       1  UNL1        0.0000
     59 C           6.4958   -2.2687   10.1189 C.3     1  UNL1        0.0000
     60 C           6.7782   -0.9207   10.7734 C.3     1  UNL1        0.0000
     61 H           5.9050   -0.5402   11.2955 H       1  UNL1        0.0000
     62 H           7.0800   -0.1892   10.0268 H       1  UNL1        0.0000
     63 H           7.5887   -1.0153   11.4962 H       1  UNL1        0.0000
     64 C           6.1258   -3.2781   11.2059 C.3     1  UNL1        0.0000
     65 H           5.2776   -2.9282   11.7910 H       1  UNL1        0.0000
     66 H           6.9647   -3.4177   11.8884 H       1  UNL1        0.0000
     67 H           5.8789   -4.2479   10.7785 H       1  UNL1        0.0000
     68 C           7.7802   -2.7339    9.4353 C.3     1  UNL1        0.0000
     69 H           7.6627   -3.7201    8.9950 H       1  UNL1        0.0000
     70 H           8.5964   -2.7827   10.1557 H       1  UNL1        0.0000
     71 H           8.0756   -2.0408    8.6479 H       1  UNL1        0.0000
     72 C           5.7398    2.4947   10.6434 C.3     1  UNL1        0.0000
     73 H           5.0778    1.6508   10.4926 H       1  UNL1        0.0000
     74 H           5.3267    3.0979   11.4464 H       1  UNL1        0.0000
     75 H           6.6920    2.1034   10.9845 H       1  UNL1        0.0000
     76 C           7.4275    4.7008    9.3509 C.3     1  UNL1        0.0000
     77 C           7.4589    5.8628    8.3632 C.3     1  UNL1        0.0000
     78 H           6.5877    6.5028    8.4790 H       1  UNL1        0.0000
     79 H           7.4902    5.4972    7.3425 H       1  UNL1        0.0000
     80 H           8.3452    6.4752    8.5312 H       1  UNL1        0.0000
     81 C           8.7253    3.9095    9.2010 C.3     1  UNL1        0.0000
     82 H           8.7514    3.0612    9.8799 H       1  UNL1        0.0000
     83 H           9.5841    4.5419    9.4238 H       1  UNL1        0.0000
     84 H           8.8439    3.5323    8.1867 H       1  UNL1        0.0000
     85 C           7.3754    5.2695   10.7716 C.3     1  UNL1        0.0000
     86 H           7.4605    4.4796   11.5126 H       1  UNL1        0.0000
     87 H           6.4504    5.8127   10.9492 H       1  UNL1        0.0000
     88 H           8.2048    5.9604   10.9242 H       1  UNL1        0.0000
     89 C           4.2233    4.2734    8.6162 C.3     1  UNL1        0.0000
     90 C           3.1687    3.1703    8.6811 C.3     1  UNL1        0.0000
     91 H           3.4129    2.3619    7.9954 H       1  UNL1        0.0000
     92 H           2.1929    3.5689    8.4074 H       1  UNL1        0.0000
     93 H           3.0924    2.7658    9.6858 H       1  UNL1        0.0000
     94 C           4.1922    4.8712    7.2128 C.3     1  UNL1        0.0000
     95 H           4.4443    4.1165    6.4711 H       1  UNL1        0.0000
     96 H           4.8885    5.6995    7.1246 H       1  UNL1        0.0000
     97 H           3.1957    5.2497    6.9877 H       1  UNL1        0.0000
     98 C           3.8498    5.3587    9.6237 C.3     1  UNL1        0.0000
     99 H           4.5353    6.2006    9.5678 H       1  UNL1        0.0000
    100 H           3.8601    4.9710   10.6395 H       1  UNL1        0.0000
    101 H           2.8468    5.7341    9.4199 H       1  UNL1        0.0000
    102 C           8.2861    2.5599    1.9472 C.3     1  UNL1        0.0000
    103 H           9.2524    2.3590    2.3984 H       1  UNL1        0.0000
    104 H           8.4519    3.1968    1.0825 H       1  UNL1        0.0000
    105 H           7.8997    1.6132    1.5870 H       1  UNL1        0.0000
    106 C           8.0285    4.8827    3.9665 C.3     1  UNL1        0.0000
    107 C           8.9979    4.3880    5.0368 C.3     1  UNL1        0.0000
    108 H           9.7416    3.7208    4.6106 H       1  UNL1        0.0000
    109 H           8.4725    3.8477    5.8246 H       1  UNL1        0.0000
    110 H           9.5256    5.2256    5.4928 H       1  UNL1        0.0000
    111 C           8.8400    5.6193    2.8986 C.3     1  UNL1        0.0000
    112 H           9.6127    4.9768    2.4846 H       1  UNL1        0.0000
    113 H           9.3299    6.4882    3.3390 H       1  UNL1        0.0000
    114 H           8.2075    5.9678    2.0860 H       1  UNL1        0.0000
    115 C           7.0585    5.8686    4.6110 C.3     1  UNL1        0.0000
    116 H           6.4184    5.3650    5.3309 H       1  UNL1        0.0000
    117 H           6.4296    6.3441    3.8633 H       1  UNL1        0.0000
    118 H           7.6077    6.6575    5.1260 H       1  UNL1        0.0000
    119 C           5.4300    3.7575    2.3200 C.3     1  UNL1        0.0000
    120 C           4.3155    4.1147    3.3004 C.3     1  UNL1        0.0000
    121 H           4.5485    5.0141    3.8599 H       1  UNL1        0.0000
    122 H           4.1482    3.3024    4.0047 H       1  UNL1        0.0000
    123 H           3.3870    4.2905    2.7581 H       1  UNL1        0.0000
    124 C           5.6030    4.8998    1.3216 C.3     1  UNL1        0.0000
    125 H           5.8397    5.8336    1.8239 H       1  UNL1        0.0000
    126 H           4.6812    5.0516    0.7594 H       1  UNL1        0.0000
    127 H           6.3942    4.6796    0.6085 H       1  UNL1        0.0000
    128 C           4.9837    2.5198    1.5478 C.3     1  UNL1        0.0000
    129 H           5.7060    2.2578    0.7799 H       1  UNL1        0.0000
    130 H           4.0283    2.7030    1.0571 H       1  UNL1        0.0000
    131 H           4.8582    1.6779    2.2243 H       1  UNL1        0.0000
    132 C           7.9923   -1.3863    6.0323 C.3     1  UNL1        0.0000
    133 C           8.5998    0.5640    7.8485 C.3     1  UNL1        0.0000
    134 C           8.8532    0.9983    5.2401 C.3     1  UNL1        0.0000
@<TRIPOS>BOND
     1    36    34    1
     2    40    38    1
     3    35    34    1
     4   127   124    1
     5    41    38    1
     6   126   124    1
     7   129   128    1
     8    18    17    1
     9    34    37    1
    10    34    29    1
    11   130   128    1
    12   104   102    1
    13    38    39    1
    14    38    29    1
    15   124   125    1
    16   124   119    1
    17   128   131    1
    18   128   119    1
    19   105   102    1
    20    19    17    1
    21    22    21    1
    22    33    30    1
    23    17    20    1
    24    17    16    1
    25    29    30    1
    26    29     5    1
    27   102   103    1
    28   102     8    1
    29   114   111    1
    30   119     8    1
    31   119   120    1
    32    24    21    1
    33   112   111    1
    34    30    32    1
    35    30    31    1
    36    21    16    1
    37    21    23    1
    38   123   120    1
    39   111   113    1
    40   111   106    1
    41    16     5    1
    42    16    25    1
    43     8   106    1
    44     8     4    1
    45   120   121    1
    46   120   122    1
    47    15    12    1
    48     5    12    1
    49     5     1    1
    50   117   115    1
    51   106   115    1
    52   106   107    1
    53    28    25    1
    54    12    14    1
    55    12    13    1
    56    25    27    1
    57    25    26    1
    58    11   134    1
    59   108   107    1
    60   115   118    1
    61   115   116    1
    62     4     1    1
    63     4     3    1
    64     1     2    1
    65   107   110    1
    66   107   109    1
    67     9   132    1
    68    95    94    1
    69    97    94    1
    70    44    42    1
    71    96    94    1
    72    43    42    1
    73    94    89    1
    74     3     2    1
    75     3     7    1
    76     2     6    1
    77    79    77    1
    78    48    47    1
    79    49    47    1
    80    42    45    1
    81    42     6    1
    82   133    10    1
    83    91    90    1
    84    47    50    1
    85    47    46    1
    86    84    81    1
    87    77    78    1
    88    77    80    1
    89    77    76    1
    90    92    90    1
    91    89    90    1
    92    89     7    1
    93    89    98    1
    94    71    68    1
    95    90    93    1
    96     6    46    1
    97     6    59    1
    98    69    68    1
    99     7    76    1
   100     7    72    1
   101    81    76    1
   102    81    83    1
   103    81    82    1
   104    57    55    1
   105    46    55    1
   106    46    51    1
   107    76    85    1
   108   101    98    1
   109    68    59    1
   110    68    70    1
   111    99    98    1
   112    98   100    1
   113    55    58    1
   114    55    56    1
   115    54    51    1
   116    62    60    1
   117    59    60    1
   118    59    64    1
   119    51    53    1
   120    51    52    1
   121    73    72    1
   122    72    75    1
   123    72    74    1
   124    85    88    1
   125    85    87    1
   126    85    86    1
   127    60    61    1
   128    60    63    1
   129    67    64    1
   130    64    65    1
   131    64    66    1
   132     1   132    0
   133     2   132    0
   134     3   133    0
   135     4   134    0
