@<TRIPOS>MOLECULE
10,14,15,17,18,19
 138 147 0 0 0
SMALL
GASTEIGER

@<TRIPOS>ATOM
      1 SI         -1.3418   10.6108   35.0221 Si      1  UNL1        0.0000
      2 SI         -1.8859    9.9119   37.9093 Si      1  UNL1        0.0000
      3 SI          1.0312    9.0834   37.9529 Si      1  UNL1        0.0000
      4 SI          1.4794   10.2136   35.1053 Si      1  UNL1        0.0000
      5 SI         -2.1078    7.7705   34.0609 Si      1  UNL1        0.0000
      6 SI         -2.3948    7.1235   36.8041 Si      1  UNL1        0.0000
      7 SI          0.5534    6.3383   37.3068 Si      1  UNL1        0.0000
      8 O          -2.0525   10.6624   36.4818 O.3     1  UNL1        0.0000
      9 O          -0.3187    9.9008   38.3315 O.3     1  UNL1        0.0000
     10 O           1.2907    9.0721   36.3437 O.3     1  UNL1        0.0000
     11 O           0.1627   11.1964   35.1646 O.3     1  UNL1        0.0000
     12 O          -2.4762    8.4029   37.7996 O.3     1  UNL1        0.0000
     13 O           0.8370    7.5373   38.3949 O.3     1  UNL1        0.0000
     14 O           1.4566    9.2185   33.8813 O.3     1  UNL1        0.0000
     15 O          -1.1530    9.0784   34.5113 O.3     1  UNL1        0.0000
     16 O          -3.0631    7.4806   35.3688 O.3     1  UNL1        0.0000
     17 O          -0.8389    6.7766   36.4916 O.3     1  UNL1        0.0000
     18 O           1.5637    6.3581   36.0925 O.3     1  UNL1        0.0000
     19 O          -0.9757    6.6892   33.8399 O.3     1  UNL1        0.0000
     20 C          -2.3994   11.6988   33.8862 C.3     1  UNL1        0.0000
     21 H          -2.3455   11.3308   32.8568 H       1  UNL1        0.0000
     22 C          -1.9158   13.1517   33.8719 C.3     1  UNL1        0.0000
     23 H          -0.8700   13.1845   33.5661 H       1  UNL1        0.0000
     24 H          -1.9767   13.5554   34.8832 H       1  UNL1        0.0000
     25 C          -2.7685   13.9962   32.9279 C.3     1  UNL1        0.0000
     26 H          -2.4190   15.0308   32.9366 H       1  UNL1        0.0000
     27 H          -2.6635   13.6164   31.9091 H       1  UNL1        0.0000
     28 C          -4.2373   13.9424   33.3372 C.3     1  UNL1        0.0000
     29 H          -4.3507   14.3804   34.3308 H       1  UNL1        0.0000
     30 H          -4.8410   14.5289   32.6407 H       1  UNL1        0.0000
     31 C          -4.7280   12.4982   33.3669 C.3     1  UNL1        0.0000
     32 H          -4.6714   12.0773   32.3601 H       1  UNL1        0.0000
     33 H          -5.7725   12.4672   33.6849 H       1  UNL1        0.0000
     34 C          -3.8685   11.6668   34.3152 C.3     1  UNL1        0.0000
     35 H          -4.2267   10.6369   34.3486 H       1  UNL1        0.0000
     36 H          -3.9448   12.0672   35.3265 H       1  UNL1        0.0000
     37 C          -2.8829   10.8142   39.2357 C.3     1  UNL1        0.0000
     38 H          -2.5264   11.8449   39.3223 H       1  UNL1        0.0000
     39 C          -4.3688   10.8630   38.8727 C.3     1  UNL1        0.0000
     40 H          -4.4919   11.3607   37.9102 H       1  UNL1        0.0000
     41 H          -4.7405    9.8427   38.7674 H       1  UNL1        0.0000
     42 C          -5.1727   11.5921   39.9463 C.3     1  UNL1        0.0000
     43 H          -6.2306   11.6036   39.6750 H       1  UNL1        0.0000
     44 H          -4.8327   12.6281   40.0134 H       1  UNL1        0.0000
     45 C          -4.9910   10.9146   41.3006 C.3     1  UNL1        0.0000
     46 H          -5.5573   11.4499   42.0663 H       1  UNL1        0.0000
     47 H          -5.3777    9.8947   41.2480 H       1  UNL1        0.0000
     48 C          -3.5130   10.8745   41.6755 C.3     1  UNL1        0.0000
     49 H          -3.1389   11.8957   41.7771 H       1  UNL1        0.0000
     50 H          -3.3866   10.3743   42.6382 H       1  UNL1        0.0000
     51 C          -2.7099   10.1454   40.6013 C.3     1  UNL1        0.0000
     52 H          -3.0494    9.1108   40.5326 H       1  UNL1        0.0000
     53 H          -1.6524   10.1305   40.8677 H       1  UNL1        0.0000
     54 C           2.4709    9.8156   38.9461 C.3     1  UNL1        0.0000
     55 H           2.8796   10.6820   38.4174 H       1  UNL1        0.0000
     56 C           2.0131   10.2988   40.3238 C.3     1  UNL1        0.0000
     57 H           1.6110    9.4514   40.8805 H       1  UNL1        0.0000
     58 H           1.2101   11.0261   40.2044 H       1  UNL1        0.0000
     59 C           3.1758   10.9165   41.0969 C.3     1  UNL1        0.0000
     60 H           3.5411   11.7948   40.5599 H       1  UNL1        0.0000
     61 H           2.8352   11.2444   42.0814 H       1  UNL1        0.0000
     62 C           4.3133    9.9114   41.2504 C.3     1  UNL1        0.0000
     63 H           5.1487   10.3709   41.7835 H       1  UNL1        0.0000
     64 H           3.9651    9.0613   41.8405 H       1  UNL1        0.0000
     65 C           4.7741    9.4174   39.8825 C.3     1  UNL1        0.0000
     66 H           5.5709    8.6803   40.0025 H       1  UNL1        0.0000
     67 H           5.1774   10.2559   39.3103 H       1  UNL1        0.0000
     68 C           3.6044    8.7996   39.1212 C.3     1  UNL1        0.0000
     69 H           3.9378    8.4377   38.1468 H       1  UNL1        0.0000
     70 H           3.2215    7.9387   39.6704 H       1  UNL1        0.0000
     71 C           2.9729   11.3338   35.4118 C.3     1  UNL1        0.0000
     72 H           2.8167   11.9011   36.3352 H       1  UNL1        0.0000
     73 C           4.2597   10.5220   35.5600 C.3     1  UNL1        0.0000
     74 H           4.4198    9.9552   34.6437 H       1  UNL1        0.0000
     75 H           4.1535    9.8074   36.3766 H       1  UNL1        0.0000
     76 C           5.4574   11.4342   35.8130 C.3     1  UNL1        0.0000
     77 H           5.3130   11.9755   36.7511 H       1  UNL1        0.0000
     78 H           6.3670   10.8371   35.9082 H       1  UNL1        0.0000
     79 C           5.6089   12.4356   34.6724 C.3     1  UNL1        0.0000
     80 H           6.4588   13.0950   34.8624 H       1  UNL1        0.0000
     81 H           5.8025   11.8957   33.7434 H       1  UNL1        0.0000
     82 C           4.3333   13.2584   34.5201 C.3     1  UNL1        0.0000
     83 H           4.4404   13.9600   33.6902 H       1  UNL1        0.0000
     84 H           4.1676   13.8396   35.4300 H       1  UNL1        0.0000
     85 C           3.1336   12.3462   34.2764 C.3     1  UNL1        0.0000
     86 H           2.2218   12.9372   34.1886 H       1  UNL1        0.0000
     87 H           3.2683   11.8065   33.3385 H       1  UNL1        0.0000
     88 C          -3.1972    8.2048   32.5765 C.3     1  UNL1        0.0000
     89 H          -3.8712    9.0277   32.8291 H       1  UNL1        0.0000
     90 C          -4.0617    7.0215   32.1395 C.3     1  UNL1        0.0000
     91 H          -4.6958    6.7086   32.9694 H       1  UNL1        0.0000
     92 H          -3.4129    6.1830   31.8840 H       1  UNL1        0.0000
     93 C          -4.9193    7.3926   30.9318 C.3     1  UNL1        0.0000
     94 H          -5.5196    6.5338   30.6242 H       1  UNL1        0.0000
     95 H          -5.6038    8.1979   31.2077 H       1  UNL1        0.0000
     96 C          -4.0405    7.8528   29.7727 C.3     1  UNL1        0.0000
     97 H          -4.6634    8.1333   28.9203 H       1  UNL1        0.0000
     98 H          -3.3954    7.0288   29.4614 H       1  UNL1        0.0000
     99 C          -3.1752    9.0344   30.2003 C.3     1  UNL1        0.0000
    100 H          -3.8200    9.8772   30.4607 H       1  UNL1        0.0000
    101 H          -2.5349    9.3459   29.3722 H       1  UNL1        0.0000
    102 C          -2.3200    8.6534   31.4059 C.3     1  UNL1        0.0000
    103 H          -1.6936    9.4942   31.7087 H       1  UNL1        0.0000
    104 H          -1.6520    7.8359   31.1369 H       1  UNL1        0.0000
    105 C          -3.3586    5.6949   37.5921 C.3     1  UNL1        0.0000
    106 H          -2.7093    5.1631   38.2946 H       1  UNL1        0.0000
    107 C          -4.5668    6.1997   38.3835 C.3     1  UNL1        0.0000
    108 H          -5.2397    6.7266   37.7059 H       1  UNL1        0.0000
    109 H          -4.2333    6.9124   39.1379 H       1  UNL1        0.0000
    110 C          -5.3073    5.0397   39.0443 C.3     1  UNL1        0.0000
    111 H          -4.6447    4.5484   39.7604 H       1  UNL1        0.0000
    112 H          -6.1733    5.4154   39.5937 H       1  UNL1        0.0000
    113 C          -5.7582    4.0252   37.9977 C.3     1  UNL1        0.0000
    114 H          -6.4686    4.5006   37.3185 H       1  UNL1        0.0000
    115 H          -6.2658    3.1885   38.4831 H       1  UNL1        0.0000
    116 C          -4.5617    3.5183   37.1983 C.3     1  UNL1        0.0000
    117 H          -4.8970    2.8123   36.4356 H       1  UNL1        0.0000
    118 H          -3.8769    2.9896   37.8653 H       1  UNL1        0.0000
    119 C          -3.8300    4.6854   36.5410 C.3     1  UNL1        0.0000
    120 H          -2.9772    4.3206   35.9659 H       1  UNL1        0.0000
    121 H          -4.4972    5.1918   35.8425 H       1  UNL1        0.0000
    122 C           0.3483    4.7478   38.3106 C.3     1  UNL1        0.0000
    123 H          -0.4572    4.8859   39.0386 H       1  UNL1        0.0000
    124 C          -0.0182    3.5640   37.4158 C.3     1  UNL1        0.0000
    125 H          -0.9239    3.7929   36.8535 H       1  UNL1        0.0000
    126 H           0.7858    3.4039   36.6960 H       1  UNL1        0.0000
    127 C          -0.2181    2.2974   38.2443 C.3     1  UNL1        0.0000
    128 H          -0.4743    1.4608   37.5909 H       1  UNL1        0.0000
    129 H          -1.0472    2.4446   38.9404 H       1  UNL1        0.0000
    130 C           1.0487    1.9742   39.0308 C.3     1  UNL1        0.0000
    131 H           0.8946    1.0789   39.6373 H       1  UNL1        0.0000
    132 H           1.8630    1.7710   38.3325 H       1  UNL1        0.0000
    133 C           1.4335    3.1496   39.9244 C.3     1  UNL1        0.0000
    134 H           0.6463    3.3136   40.6636 H       1  UNL1        0.0000
    135 H           2.3551    2.9195   40.4631 H       1  UNL1        0.0000
    136 C           1.6197    4.4173   39.0941 C.3     1  UNL1        0.0000
    137 H           2.4426    4.2788   38.3917 H       1  UNL1        0.0000
    138 H           1.8746    5.2569   39.7407 H       1  UNL1        0.0000
@<TRIPOS>BOND
     1    97    96    1
     2   101    99    1
     3    98    96    1
     4    96    99    1
     5    96    93    1
     6    99   100    1
     7    99   102    1
     8    94    93    1
     9    93    95    1
    10    93    90    1
    11   104   102    1
    12   102   103    1
    13   102    88    1
    14    92    90    1
    15    27    25    1
    16    90    88    1
    17    90    91    1
    18    32    31    1
    19    88    89    1
    20    88     5    1
    21    30    28    1
    22    21    20    1
    23    25    26    1
    24    25    28    1
    25    25    22    1
    26    28    31    1
    27    28    29    1
    28    87    85    1
    29    31    33    1
    30    31    34    1
    31    23    22    1
    32    83    82    1
    33    81    79    1
    34    19     5    1
    35    22    20    1
    36    22    24    1
    37    14     4    1
    38    20    34    1
    39    20     1    1
    40     5    15    1
    41     5    16    1
    42    86    85    1
    43    85    82    1
    44    85    71    1
    45    34    35    1
    46    34    36    1
    47    15     1    1
    48    82    79    1
    49    82    84    1
    50    74    73    1
    51    79    80    1
    52    79    76    1
    53     1    11    1
    54     1     8    1
    55     4    11    1
    56     4    71    1
    57     4    10    1
    58    16     6    1
    59    71    73    1
    60    71    72    1
    61    73    76    1
    62    73    75    1
    63    76    78    1
    64    76    77    1
    65   121   119    1
    66   120   119    1
    67    18     7    1
    68    10     3    1
    69   117   116    1
    70     8     2    1
    71    17     6    1
    72    17     7    1
    73   119   116    1
    74   119   105    1
    75   126   124    1
    76     6   105    1
    77     6    12    1
    78   125   124    1
    79   116   118    1
    80   116   113    1
    81     7   122    1
    82     7    13    1
    83   114   113    1
    84   124   127    1
    85   124   122    1
    86   128   127    1
    87   105   106    1
    88   105   107    1
    89   108   107    1
    90    12     2    1
    91     2     9    1
    92     2    37    1
    93    40    39    1
    94     3     9    1
    95     3    13    1
    96     3    54    1
    97   113   115    1
    98   113   110    1
    99    69    68    1
   100   127   129    1
   101   127   130    1
   102   122   123    1
   103   122   136    1
   104   132   130    1
   105   107   110    1
   106   107   109    1
   107   137   136    1
   108    55    54    1
   109    41    39    1
   110    39    37    1
   111    39    42    1
   112    54    68    1
   113    54    56    1
   114   130   131    1
   115   130   133    1
   116   110   112    1
   117   110   111    1
   118   136   138    1
   119   136   133    1
   120    68    70    1
   121    68    65    1
   122    37    38    1
   123    37    51    1
   124    67    65    1
   125    43    42    1
   126    65    66    1
   127    65    62    1
   128   133   135    1
   129   133   134    1
   130    42    44    1
   131    42    45    1
   132    58    56    1
   133    56    57    1
   134    56    59    1
   135    52    51    1
   136    60    59    1
   137    51    53    1
   138    51    48    1
   139    59    62    1
   140    59    61    1
   141    47    45    1
   142    62    63    1
   143    62    64    1
   144    45    48    1
   145    45    46    1
   146    48    49    1
   147    48    50    1
