@<TRIPOS>MOLECULE
3,4,5,6
 74 74 0 0 0
SMALL
GASTEIGER

@<TRIPOS>ATOM
      1 P           5.9840    1.9137    7.4403 P.3     1  UNL1        0.0229
      2 P           5.9892   -2.4588   10.2647 P.3     1  UNL1        0.0229
      3 S           6.9229    0.6160    6.2307 S.3     1  UNL1       -0.0478
      4 S           7.1886   -2.7234    8.6539 S.3     1  UNL1       -0.0478
      5 N           5.3455    0.9873    8.5784 N.3     1  UNL1       -0.2035
      6 N           4.9086   -1.3028    9.9544 N.3     1  UNL1       -0.2035
      7 C           4.4065    1.1116    9.6777 C.3     1  UNL1        0.0474
      8 H           3.3782    0.9764    9.2943 H       1  UNL1        0.0496
      9 C           4.4157    2.4081   10.4869 C.3     1  UNL1       -0.0341
     10 H           4.2686    3.2584    9.8205 H       1  UNL1        0.0281
     11 H           5.3802    2.5259   10.9876 H       1  UNL1        0.0281
     12 C           3.2949    2.3731   11.5242 C.3     1  UNL1       -0.0515
     13 H           3.3030    3.2980   12.1052 H       1  UNL1        0.0266
     14 H           2.3332    2.3113   11.0090 H       1  UNL1        0.0266
     15 C           3.4452    1.1751   12.4574 C.3     1  UNL1       -0.0515
     16 H           2.5957    1.1308   13.1420 H       1  UNL1        0.0266
     17 H           4.3497    1.2992   13.0593 H       1  UNL1        0.0266
     18 C           3.5422   -0.1269   11.6671 C.3     1  UNL1       -0.0341
     19 H           3.7045   -0.9647   12.3481 H       1  UNL1        0.0281
     20 H           2.6126   -0.3126   11.1241 H       1  UNL1        0.0281
     21 C           4.7012   -0.0502   10.6679 C.3     1  UNL1        0.0474
     22 H           5.6064    0.2431   11.2149 H       1  UNL1        0.0496
     23 C           7.3668    3.0923    8.0480 C.3     1  UNL1        0.0024
     24 C           8.0598    2.2516    9.1193 C.3     1  UNL1       -0.0545
     25 H           8.9561    2.7537    9.4806 H       1  UNL1        0.0239
     26 H           8.3481    1.2835    8.7050 H       1  UNL1        0.0239
     27 H           7.3933    2.0810    9.9626 H       1  UNL1        0.0239
     28 C           6.8702    4.4041    8.6439 C.3     1  UNL1       -0.0545
     29 H           6.1293    4.2386    9.4206 H       1  UNL1        0.0239
     30 H           6.4461    5.0496    7.8779 H       1  UNL1        0.0239
     31 H           7.7132    4.9311    9.0917 H       1  UNL1        0.0239
     32 C           8.3653    3.3946    6.9339 C.3     1  UNL1       -0.0545
     33 H           9.2322    3.8981    7.3611 H       1  UNL1        0.0239
     34 H           7.9394    4.0428    6.1744 H       1  UNL1        0.0239
     35 H           8.7015    2.4777    6.4567 H       1  UNL1        0.0239
     36 C           4.6960    2.8144    6.3451 C.3     1  UNL1        0.0024
     37 C           3.7565    3.7000    7.1569 C.3     1  UNL1       -0.0545
     38 H           4.2914    4.4823    7.6887 H       1  UNL1        0.0239
     39 H           3.1938    3.1050    7.8734 H       1  UNL1        0.0239
     40 H           3.0438    4.1788    6.4845 H       1  UNL1        0.0239
     41 C           5.3831    3.6131    5.2452 C.3     1  UNL1       -0.0545
     42 H           4.6560    3.8867    4.4811 H       1  UNL1        0.0239
     43 H           6.1633    3.0142    4.7787 H       1  UNL1        0.0239
     44 H           5.8208    4.5290    5.6352 H       1  UNL1        0.0239
     45 C           3.8794    1.6829    5.7175 C.3     1  UNL1       -0.0545
     46 H           3.4844    1.0105    6.4869 H       1  UNL1        0.0239
     47 H           4.4877    1.0980    5.0277 H       1  UNL1        0.0239
     48 H           3.0376    2.0978    5.1625 H       1  UNL1        0.0239
     49 C           7.1864   -2.1944   11.7213 C.3     1  UNL1        0.0024
     50 C           8.1251   -1.0791   11.2515 C.3     1  UNL1       -0.0545
     51 H           7.5710   -0.2279   10.8570 H       1  UNL1        0.0239
     52 H           8.7789   -1.4446   10.4619 H       1  UNL1        0.0239
     53 H           8.7415   -0.7350   12.0815 H       1  UNL1        0.0239
     54 C           6.4982   -1.7914   13.0233 C.3     1  UNL1       -0.0545
     55 H           5.7350   -2.5072   13.3139 H       1  UNL1        0.0239
     56 H           6.0396   -0.8100   12.9536 H       1  UNL1        0.0239
     57 H           7.2456   -1.7557   13.8168 H       1  UNL1        0.0239
     58 C           8.0078   -3.4596   11.9498 C.3     1  UNL1       -0.0545
     59 H           8.8822   -3.2165   12.5528 H       1  UNL1        0.0239
     60 H           8.3498   -3.8670   11.0010 H       1  UNL1        0.0239
     61 H           7.4334   -4.2134   12.4821 H       1  UNL1        0.0239
     62 C           5.0015   -4.0857   10.4063 C.3     1  UNL1        0.0024
     63 C           4.2483   -4.1546   11.7297 C.3     1  UNL1       -0.0545
     64 H           3.7292   -3.2159   11.9165 H       1  UNL1        0.0239
     65 H           4.9195   -4.3663   12.5593 H       1  UNL1        0.0239
     66 H           3.5066   -4.9519   11.6897 H       1  UNL1        0.0239
     67 C           5.8730   -5.3205   10.2049 C.3     1  UNL1       -0.0545
     68 H           6.4782   -5.5406   11.0788 H       1  UNL1        0.0239
     69 H           6.5332   -5.1854    9.3498 H       1  UNL1        0.0239
     70 H           5.2374   -6.1844   10.0128 H       1  UNL1        0.0239
     71 C           3.9870   -4.0103    9.2621 C.3     1  UNL1       -0.0545
     72 H           3.4036   -4.9305    9.2289 H       1  UNL1        0.0239
     73 H           4.4886   -3.8904    8.2941 H       1  UNL1        0.0239
     74 H           3.3026   -3.1762    9.4112 H       1  UNL1        0.0239
@<TRIPOS>BOND
     1    42    41    1
     2    43    41    1
     3    47    45    1
     4    48    45    1
     5    41    44    1
     6    41    36    1
     7    45    36    1
     8    45    46    1
     9    34    32    1
    10     3     1    1
    11    36    37    1
    12    36     1    1
    13    35    32    1
    14    40    37    1
    15    32    33    1
    16    32    23    1
    17    37    38    1
    18    37    39    1
    19     1    23    1
    20     1     5    1
    21    30    28    1
    22    23    28    1
    23    23    24    1
    24    73    71    1
    25     5     7    1
    26    28    31    1
    27    28    29    1
    28     4     2    1
    29    26    24    1
    30    24    25    1
    31    24    27    1
    32    72    71    1
    33    71    74    1
    34    71    62    1
    35     8     7    1
    36    69    67    1
    37     7     9    1
    38     7    21    1
    39    10     9    1
    40     6     2    1
    41     6    21    1
    42    70    67    1
    43    67    62    1
    44    67    68    1
    45     2    62    1
    46     2    49    1
    47    62    63    1
    48    52    50    1
    49     9    11    1
    50     9    12    1
    51    21    22    1
    52    21    18    1
    53    51    50    1
    54    60    58    1
    55    14    12    1
    56    20    18    1
    57    50    49    1
    58    50    53    1
    59    12    13    1
    60    12    15    1
    61    18    19    1
    62    18    15    1
    63    66    63    1
    64    49    58    1
    65    49    54    1
    66    63    64    1
    67    63    65    1
    68    58    61    1
    69    58    59    1
    70    15    17    1
    71    15    16    1
    72    56    54    1
    73    54    55    1
    74    54    57    1
