@<TRIPOS>MOLECULE
4,7,9,11,17,19
 52 54 0 0 0
SMALL
GASTEIGER

@<TRIPOS>ATOM
      1 SI          2.3029    6.7192    7.1344 Si      1  UNL1        0.0000
      2 C           4.6744    4.3398    8.8968 C.3     1  UNL1        0.0000
      3 O           4.5485    4.1267   10.2141 O.3     1  UNL1        0.0000
      4 C           2.8188    5.1728    6.1667 C.3     1  UNL1        0.0000
      5 N           3.7613    3.7464    8.1714 N.3     1  UNL1        0.0000
      6 C           1.9339    6.4037    8.9816 C.3     1  UNL1        0.0000
      7 C           2.9524    4.1923    3.8991 C.2     1  UNL1        0.0000
      8 C           2.8633    1.4754    8.6920 C.3     1  UNL1        0.0000
      9 C           3.7702    2.8034    5.7321 C.2     1  UNL1        0.0000
     10 C           5.7598    5.1748    8.4574 C.ar    1  UNL1        0.0000
     11 C           3.5067    2.9997    4.3690 C.2     1  UNL1        0.0000
     12 C           3.3893    3.3305   10.4365 C.3     1  UNL1        0.0000
     13 C           2.8675    2.9763    9.0334 C.3     1  UNL1        0.0000
     14 C           7.4932    6.7547    9.0351 C.ar    1  UNL1        0.0000
     15 C           6.4594    5.9274    9.4157 C.ar    1  UNL1        0.0000
     16 C           7.1903    6.0916    6.7477 C.ar    1  UNL1        0.0000
     17 C           2.6208    5.2375    4.7798 C.3     1  UNL1        0.0000
     18 C           3.7109    8.0125    7.0128 C.3     1  UNL1        0.0000
     19 B           3.4627    3.9038    6.7028 B       1  UNL1        0.0000
     20 C           6.1501    5.2636    7.1133 C.ar    1  UNL1        0.0000
     21 C           0.6998    7.4050    6.3543 C.3     1  UNL1        0.0000
     22 C           4.2340    0.8264    8.8717 C.3     1  UNL1        0.0000
     23 C           1.7920    0.7630    9.5126 C.3     1  UNL1        0.0000
     24 C           7.8618    6.8460    7.6997 C.ar    1  UNL1        0.0000
     25 H           2.8239    6.1428    9.5438 H       1  UNL1        0.0000
     26 H           1.1957    5.6189    9.1121 H       1  UNL1        0.0000
     27 H           1.5279    7.3043    9.4318 H       1  UNL1        0.0000
     28 H           2.8346    4.3424    2.8312 H       1  UNL1        0.0000
     29 H           2.5711    1.4052    7.6386 H       1  UNL1        0.0000
     30 H           4.2799    1.8790    5.9909 H       1  UNL1        0.0000
     31 H           3.7991    2.2434    3.6451 H       1  UNL1        0.0000
     32 H           2.6719    3.9194   11.0150 H       1  UNL1        0.0000
     33 H           3.6850    2.4576   11.0214 H       1  UNL1        0.0000
     34 H           1.8495    3.3454    8.8815 H       1  UNL1        0.0000
     35 H           8.0165    7.3357    9.7795 H       1  UNL1        0.0000
     36 H           6.1673    5.8564   10.4515 H       1  UNL1        0.0000
     37 H           7.4824    6.1528    5.7102 H       1  UNL1        0.0000
     38 H           2.2472    6.1541    4.3317 H       1  UNL1        0.0000
     39 H           4.5876    7.7100    7.5777 H       1  UNL1        0.0000
     40 H           3.3831    8.9707    7.4033 H       1  UNL1        0.0000
     41 H           4.0241    8.1680    5.9848 H       1  UNL1        0.0000
     42 H           5.6398    4.6751    6.3690 H       1  UNL1        0.0000
     43 H          -0.0065    6.6030    6.1531 H       1  UNL1        0.0000
     44 H           0.8907    7.9186    5.4169 H       1  UNL1        0.0000
     45 H           0.2128    8.1156    7.0150 H       1  UNL1        0.0000
     46 H           5.0054    1.3955    8.3565 H       1  UNL1        0.0000
     47 H           4.2191   -0.1789    8.4589 H       1  UNL1        0.0000
     48 H           4.5076    0.7484    9.9220 H       1  UNL1        0.0000
     49 H           0.8167    1.1987    9.3135 H       1  UNL1        0.0000
     50 H           1.9948    0.8316   10.5794 H       1  UNL1        0.0000
     51 H           1.7557   -0.2874    9.2382 H       1  UNL1        0.0000
     52 H           8.6689    7.4985    7.4039 H       1  UNL1        0.0000
@<TRIPOS>BOND
     1    28     7    1
     2    31    11    1
     3     7    11    2
     4     7    17    1
     5    38    17    1
     6    11     9    1
     7    17     4    1
     8    44    21    1
     9    37    16    1
    10     9    30    1
    11     9    19    2
    12    41    18    1
    13    43    21    1
    14     4    19    1
    15     4     1    1
    16    21    45    1
    17    21     1    1
    18    42    20    1
    19    19     5    1
    20    16    20   ar
    21    16    24   ar
    22    18     1    1
    23    18    40    1
    24    18    39    1
    25    20    10   ar
    26     1     6    1
    27    52    24    1
    28    29     8    1
    29    24    14   ar
    30     5     2    1
    31     5    13    1
    32    46    22    1
    33    10     2    1
    34    10    15   ar
    35    47    22    1
    36     8    22    1
    37     8    13    1
    38     8    23    1
    39    22    48    1
    40    34    13    1
    41     2     3    1
    42     6    26    1
    43     6    27    1
    44     6    25    1
    45    13    12    1
    46    14    15   ar
    47    14    35    1
    48    51    23    1
    49    49    23    1
    50    15    36    1
    51    23    50    1
    52     3    12    1
    53    12    32    1
    54    12    33    1
