@<TRIPOS>MOLECULE
1,2,3,4,5,6
 24 24 0 0 0
SMALL
GASTEIGER

@<TRIPOS>ATOM
      1 B           1.3052    8.9073    4.6096 B       1  UNL1        0.0000
      2 C           2.4808    8.4835    3.6969 C.3     1  UNL1        0.0000
      3 C           3.6095    9.2859    4.0420 C.2     1  UNL1        0.0000
      4 C           3.3247   10.1078    5.1326 C.2     1  UNL1        0.0000
      5 C           1.9749    9.9197    5.5696 C.3     1  UNL1        0.0000
      6 C          -0.0531    8.2482    4.7698 C.1     1  UNL1        0.0000
      7 C          -1.1826    7.7920    4.8763 C.1     1  UNL1        0.0000
      8 SI         -2.9567    7.2944    4.9871 Si      1  UNL1        0.0000
      9 C          -3.3049    6.3107    6.5919 C.3     1  UNL1        0.0000
     10 C          -4.0414    8.8622    4.9892 C.3     1  UNL1        0.0000
     11 C          -3.4117    6.2006    3.4874 C.3     1  UNL1        0.0000
     12 H           2.5120    7.9062    2.7790 H       1  UNL1        0.0000
     13 H           4.5368    9.3116    3.4826 H       1  UNL1        0.0000
     14 H           3.9913   10.8789    5.5028 H       1  UNL1        0.0000
     15 H           1.5386   10.6024    6.2904 H       1  UNL1        0.0000
     16 H          -4.3662    6.0998    6.6912 H       1  UNL1        0.0000
     17 H          -2.7833    5.3581    6.6133 H       1  UNL1        0.0000
     18 H          -3.0034    6.8718    7.4715 H       1  UNL1        0.0000
     19 H          -5.0993    8.6201    5.0433 H       1  UNL1        0.0000
     20 H          -3.8053    9.4998    5.8357 H       1  UNL1        0.0000
     21 H          -3.8804    9.4453    4.0879 H       1  UNL1        0.0000
     22 H          -4.4876    6.0710    3.4114 H       1  UNL1        0.0000
     23 H          -3.0707    6.6531    2.5613 H       1  UNL1        0.0000
     24 H          -2.9701    5.2102    3.5505 H       1  UNL1        0.0000
@<TRIPOS>BOND
     1    23    11    1
     2    12     2    1
     3    22    11    1
     4    13     3    1
     5    11    24    1
     6    11     8    1
     7     2     3    1
     8     2     1    1
     9     3     4    2
    10    21    10    1
    11     1     6    1
    12     1     5    1
    13     6     7    3
    14     7     8    1
    15     8    10    1
    16     8     9    1
    17    10    19    1
    18    10    20    1
    19     4    14    1
    20     4     5    1
    21     5    15    1
    22     9    17    1
    23     9    16    1
    24     9    18    1
