@<TRIPOS>MOLECULE
1,2,3,4,90
 99 107 0 0 0
SMALL
GASTEIGER

@<TRIPOS>ATOM
      1 SI          0.6368    3.8870    9.9696 Si      1  UNL1        0.0000
      2 P           1.2275    2.0158    7.6011 P.3     1  UNL1        0.0000
      3 P           1.7766    6.2428    8.6983 P.3     1  UNL1        0.0000
      4 P           3.6071    3.5288    9.5842 P.3     1  UNL1        0.0000
      5 C          -0.5218    5.4145    9.8713 C.ar    1  UNL1        0.0000
      6 C          -1.8319    5.5008   10.3033 C.ar    1  UNL1        0.0000
      7 H          -2.2839    4.6570   10.8037 H       1  UNL1        0.0000
      8 C          -2.5735    6.6517   10.0798 C.ar    1  UNL1        0.0000
      9 H          -3.6004    6.7054   10.4123 H       1  UNL1        0.0000
     10 C          -2.0057    7.7271    9.4192 C.ar    1  UNL1        0.0000
     11 H          -2.5888    8.6181    9.2342 H       1  UNL1        0.0000
     12 C          -0.6905    7.6620    8.9851 C.ar    1  UNL1        0.0000
     13 H          -0.2545    8.4989    8.4572 H       1  UNL1        0.0000
     14 C           0.0471    6.5108    9.2095 C.ar    1  UNL1        0.0000
     15 C           1.7680    4.1322   11.5100 C.ar    1  UNL1        0.0000
     16 C           1.3201    4.4803   12.7732 C.ar    1  UNL1        0.0000
     17 H           0.2575    4.5140   12.9671 H       1  UNL1        0.0000
     18 C           2.2179    4.8015   13.7784 C.ar    1  UNL1        0.0000
     19 H           1.8574    5.0735   14.7603 H       1  UNL1        0.0000
     20 C           3.5765    4.7982   13.5161 C.ar    1  UNL1        0.0000
     21 H           4.2780    5.0780   14.2891 H       1  UNL1        0.0000
     22 C           4.0442    4.4361   12.2636 C.ar    1  UNL1        0.0000
     23 H           5.1060    4.4508   12.0655 H       1  UNL1        0.0000
     24 C           3.1475    4.0865   11.2653 C.ar    1  UNL1        0.0000
     25 C          -0.2479    2.1972    9.9233 C.ar    1  UNL1        0.0000
     26 C          -1.1792    1.7755   10.8552 C.ar    1  UNL1        0.0000
     27 H          -1.3863    2.3958   11.7148 H       1  UNL1        0.0000
     28 C          -1.8386    0.5676   10.6998 C.ar    1  UNL1        0.0000
     29 H          -2.5583    0.2432   11.4379 H       1  UNL1        0.0000
     30 C          -1.5865   -0.2191    9.5877 C.ar    1  UNL1        0.0000
     31 H          -2.1193   -1.1494    9.4505 H       1  UNL1        0.0000
     32 C          -0.6540    0.1851    8.6488 C.ar    1  UNL1        0.0000
     33 H          -0.4668   -0.4261    7.7762 H       1  UNL1        0.0000
     34 C           0.0339    1.3793    8.8263 C.ar    1  UNL1        0.0000
     35 C           2.6492    7.0494   10.0860 C.ar    1  UNL1        0.0000
     36 C           2.0420    7.3286   11.3051 C.ar    1  UNL1        0.0000
     37 H           0.9845    7.1469   11.4346 H       1  UNL1        0.0000
     38 C           2.7914    7.8388   12.3501 C.ar    1  UNL1        0.0000
     39 H           2.3129    8.0552   13.2944 H       1  UNL1        0.0000
     40 C           4.1475    8.0675   12.1930 C.ar    1  UNL1        0.0000
     41 H           4.7291    8.4591   13.0148 H       1  UNL1        0.0000
     42 C           4.7581    7.7946   10.9791 C.ar    1  UNL1        0.0000
     43 H           5.8162    7.9736   10.8501 H       1  UNL1        0.0000
     44 C           4.0128    7.2899    9.9327 C.ar    1  UNL1        0.0000
     45 H           4.4843    7.0808    8.9812 H       1  UNL1        0.0000
     46 C           2.2039    7.3807    7.3487 C.ar    1  UNL1        0.0000
     47 C           2.2278    8.7688    7.4368 C.ar    1  UNL1        0.0000
     48 H           1.9566    9.2531    8.3654 H       1  UNL1        0.0000
     49 C           2.6193    9.5174    6.3413 C.ar    1  UNL1        0.0000
     50 H           2.6293   10.5963    6.4031 H       1  UNL1        0.0000
     51 C           3.0072    8.8900    5.1676 C.ar    1  UNL1        0.0000
     52 H           3.3114    9.4819    4.3166 H       1  UNL1        0.0000
     53 C           3.0198    7.5061    5.0854 C.ar    1  UNL1        0.0000
     54 H           3.3398    7.0205    4.1746 H       1  UNL1        0.0000
     55 C           2.6221    6.7560    6.1751 C.ar    1  UNL1        0.0000
     56 H           2.6216    5.6582    6.1297 H       1  UNL1        0.0000
     57 C           5.3447    4.0099    9.3314 C.ar    1  UNL1        0.0000
     58 C           5.5730    4.8184    8.2226 C.ar    1  UNL1        0.0000
     59 H           4.7182    5.1033    7.6055 H       1  UNL1        0.0000
     60 C           6.8516    5.2359    7.9048 C.ar    1  UNL1        0.0000
     61 H           7.0225    5.8678    7.0445 H       1  UNL1        0.0000
     62 C           7.9157    4.8325    8.6950 C.ar    1  UNL1        0.0000
     63 H           8.9180    5.1577    8.4566 H       1  UNL1        0.0000
     64 C           7.7015    3.9933    9.7780 C.ar    1  UNL1        0.0000
     65 H           8.5397    3.6604   10.3736 H       1  UNL1        0.0000
     66 C           6.4231    3.5712   10.0941 C.ar    1  UNL1        0.0000
     67 H           6.2600    2.8845   10.9140 H       1  UNL1        0.0000
     68 C           3.8119    1.7413    9.8858 C.ar    1  UNL1        0.0000
     69 C           3.0708    1.0590   10.8445 C.ar    1  UNL1        0.0000
     70 H           2.3956    1.6026   11.4909 H       1  UNL1        0.0000
     71 C           3.2057   -0.3118   10.9749 C.ar    1  UNL1        0.0000
     72 H           2.6318   -0.8363   11.7259 H       1  UNL1        0.0000
     73 C           4.0720   -1.0113   10.1505 C.ar    1  UNL1        0.0000
     74 H           4.1810   -2.0804   10.2624 H       1  UNL1        0.0000
     75 C           4.7873   -0.3403    9.1710 C.ar    1  UNL1        0.0000
     76 H           5.4481   -0.8857    8.5123 H       1  UNL1        0.0000
     77 C           4.6503    1.0269    9.0323 C.ar    1  UNL1        0.0000
     78 H           5.1980    1.5540    8.2599 H       1  UNL1        0.0000
     79 C           1.8588    0.5512    6.7360 C.ar    1  UNL1        0.0000
     80 C           2.2211    0.7016    5.3989 C.ar    1  UNL1        0.0000
     81 H           2.0375    1.6495    4.9048 H       1  UNL1        0.0000
     82 C           2.8004   -0.3482    4.7129 C.ar    1  UNL1        0.0000
     83 H           3.0684   -0.2327    3.6722 H       1  UNL1        0.0000
     84 C           3.0400   -1.5494    5.3621 C.ar    1  UNL1        0.0000
     85 H           3.4914   -2.3715    4.8257 H       1  UNL1        0.0000
     86 C           2.7103   -1.6929    6.7003 C.ar    1  UNL1        0.0000
     87 H           2.9108   -2.6251    7.2092 H       1  UNL1        0.0000
     88 C           2.1290   -0.6463    7.3916 C.ar    1  UNL1        0.0000
     89 H           1.8829   -0.7495    8.4392 H       1  UNL1        0.0000
     90 C           0.4007    4.2577    6.8162 C.ar    1  UNL1        0.0000
     91 C          -0.3643    5.2154    6.1489 C.ar    1  UNL1        0.0000
     92 H          -0.2383    6.2716    6.3693 H       1  UNL1        0.0000
     93 C          -1.2914    4.8385    5.1894 C.ar    1  UNL1        0.0000
     94 H          -1.8693    5.5999    4.6812 H       1  UNL1        0.0000
     95 C          -1.4941    3.5046    4.8629 C.ar    1  UNL1        0.0000
     96 H          -2.2218    3.2392    4.1083 H       1  UNL1        0.0000
     97 C          -0.7748    2.5139    5.5100 C.ar    1  UNL1        0.0000
     98 H          -0.9203    1.4673    5.2740 H       1  UNL1        0.0000
     99 C           0.1404    2.9133    6.4694 C.ar    1  UNL1        0.0000
@<TRIPOS>BOND
     1    83    82    1
     2    96    95    1
     3    54    53    1
     4    52    51    1
     5    94    93    1
     6    82    84   ar
     7    82    80   ar
     8    85    84    1
     9    95    93   ar
    10    95    97   ar
    11    81    80    1
    12    53    51   ar
    13    53    55   ar
    14    51    49   ar
    15    93    91   ar
    16    98    97    1
    17    84    86   ar
    18    80    79   ar
    19    97    99   ar
    20    56    55    1
    21    91    92    1
    22    91    90   ar
    23    55    46   ar
    24    49    50    1
    25    49    47   ar
    26    99    90   ar
    27    99     2    1
    28    86    87    1
    29    86    88   ar
    30    79    88   ar
    31    79     2    1
    32    61    60    1
    33    46    47   ar
    34    46     3    1
    35    88    89    1
    36    47    48    1
    37     2    34    1
    38    59    58    1
    39    33    32    1
    40    60    58   ar
    41    60    62   ar
    42    58    57   ar
    43    78    77    1
    44    63    62    1
    45    13    12    1
    46    76    75    1
    47    32    34   ar
    48    32    30   ar
    49    62    64   ar
    50     3    14    1
    51     3    35    1
    52    34    25   ar
    53    45    44    1
    54    12    14   ar
    55    12    10   ar
    56    77    75   ar
    57    77    68   ar
    58    75    73   ar
    59    14     5   ar
    60    11    10    1
    61    57     4    1
    62    57    66   ar
    63    10     8   ar
    64    31    30    1
    65     4    68    1
    66     4    24    1
    67    30    28   ar
    68    64    66   ar
    69    64    65    1
    70     5     1    1
    71     5     6   ar
    72    68    69   ar
    73    25     1    1
    74    25    26   ar
    75    44    35   ar
    76    44    42   ar
    77     1    15    1
    78     8     6   ar
    79     8     9    1
    80    35    36   ar
    81    66    67    1
    82    73    74    1
    83    73    71   ar
    84     6     7    1
    85    28    26   ar
    86    28    29    1
    87    69    71   ar
    88    69    70    1
    89    43    42    1
    90    26    27    1
    91    71    72    1
    92    42    40   ar
    93    24    15   ar
    94    24    22   ar
    95    36    37    1
    96    36    38   ar
    97    15    16   ar
    98    23    22    1
    99    40    38   ar
   100    40    41    1
   101    22    20   ar
   102    38    39    1
   103    16    17    1
   104    16    18   ar
   105    20    18   ar
   106    20    21    1
   107    18    19    1
