@<TRIPOS>MOLECULE
5,9,10,11,19,22
 140 143 0 0 0
SMALL
GASTEIGER

@<TRIPOS>ATOM
      1 SI         -2.1864    5.3740    5.9050 Si      1  UNL1        0.0000
      2 SI          1.7421    3.5718    6.3466 Si      1  UNL1        0.0000
      3 SI          2.0211    5.0590    3.7123 Si      1  UNL1        0.0000
      4 SI         -0.5128    2.1019    1.5237 Si      1  UNL1        0.0000
      5 SI         -1.0714    0.6341    3.9964 Si      1  UNL1        0.0000
      6 SI          1.9199    1.0281    4.8060 Si      1  UNL1        0.0000
      7 SI          2.4963    2.3805    2.1948 Si      1  UNL1        0.0000
      8 SI         -1.0378    4.7756    3.0940 Si      1  UNL1        0.0000
      9 O          -1.6144    4.4451    4.5804 O.3     1  UNL1        0.0000
     10 O           0.1688    3.3797    6.4716 O.3     1  UNL1        0.0000
     11 O          -2.1030    1.6873    4.5930 O.3     1  UNL1        0.0000
     12 O           2.0411    4.8022    5.3025 O.3     1  UNL1        0.0000
     13 O           2.4622    2.2260    5.7447 O.3     1  UNL1        0.0000
     14 O           2.6743    3.8462    2.8616 O.3     1  UNL1        0.0000
     15 O           0.4924    5.2909    3.2114 O.3     1  UNL1        0.0000
     16 O           1.0886    2.3083    1.3935 O.3     1  UNL1        0.0000
     17 O          -1.1660    3.4164    2.2237 O.3     1  UNL1        0.0000
     18 O          -0.8604    0.7787    2.3838 O.3     1  UNL1        0.0000
     19 O           0.3114    1.1954    4.7467 O.3     1  UNL1        0.0000
     20 O           2.5455    1.2128    3.3171 O.3     1  UNL1        0.0000
     21 C          -2.6553    3.8835    6.9621 C.3     1  UNL1        0.0000
     22 C          -3.8596    3.0755    6.6922 C.2     1  UNL1        0.0000
     23 C          -4.2286    2.4541    7.8616 C.2     1  UNL1        0.0000
     24 C          -3.3371    2.8595    8.9104 C.2     1  UNL1        0.0000
     25 C          -2.4118    3.7297    8.3937 C.2     1  UNL1        0.0000
     26 C          -1.2868    4.3990    9.1242 C.3     1  UNL1        0.0000
     27 H          -0.4083    4.4538    8.4814 H       1  UNL1        0.0000
     28 H          -1.0273    3.8334   10.0159 H       1  UNL1        0.0000
     29 H          -1.5651    5.4106    9.4270 H       1  UNL1        0.0000
     30 C          -3.4067    2.3272   10.3043 C.3     1  UNL1        0.0000
     31 H          -2.8984    2.9870   11.0017 H       1  UNL1        0.0000
     32 H          -2.9301    1.3474   10.3398 H       1  UNL1        0.0000
     33 H          -4.4411    2.2165   10.6218 H       1  UNL1        0.0000
     34 C          -5.3496    1.4862    8.0643 C.3     1  UNL1        0.0000
     35 H          -4.9600    0.5496    8.4598 H       1  UNL1        0.0000
     36 H          -5.8641    1.2831    7.1300 H       1  UNL1        0.0000
     37 H          -6.0737    1.8808    8.7775 H       1  UNL1        0.0000
     38 C          -4.6231    3.0753    5.3955 C.3     1  UNL1        0.0000
     39 H          -3.9773    3.3460    4.5599 H       1  UNL1        0.0000
     40 H          -5.4516    3.7862    5.4486 H       1  UNL1        0.0000
     41 H          -5.0411    2.0898    5.1932 H       1  UNL1        0.0000
     42 C          -0.7890    6.5693    6.4155 C.3     1  UNL1        0.0000
     43 H          -0.7024    7.3824    5.7000 H       1  UNL1        0.0000
     44 H           0.1642    6.0498    6.4381 H       1  UNL1        0.0000
     45 H          -0.9634    7.0072    7.3922 H       1  UNL1        0.0000
     46 C          -3.7019    6.4353    5.3914 C.3     1  UNL1        0.0000
     47 H          -4.2892    5.9709    4.6077 H       1  UNL1        0.0000
     48 H          -3.4070    7.4227    5.0513 H       1  UNL1        0.0000
     49 H          -4.3542    6.5745    6.2471 H       1  UNL1        0.0000
     50 C           2.6076    3.9696    7.9908 C.3     1  UNL1        0.0000
     51 H           2.5273    5.0372    8.2006 H       1  UNL1        0.0000
     52 H           2.0867    3.4532    8.7989 H       1  UNL1        0.0000
     53 C           4.0879    3.5731    8.0322 C.3     1  UNL1        0.0000
     54 C           4.6610    3.8140    9.4284 C.3     1  UNL1        0.0000
     55 H           4.1114    3.2435   10.1731 H       1  UNL1        0.0000
     56 H           4.5963    4.8687    9.6878 H       1  UNL1        0.0000
     57 H           5.7059    3.5145    9.4696 H       1  UNL1        0.0000
     58 C           4.8890    4.3446    6.9881 C.3     1  UNL1        0.0000
     59 H           4.5098    4.1327    5.9934 H       1  UNL1        0.0000
     60 H           5.9398    4.0649    7.0303 H       1  UNL1        0.0000
     61 H           4.8075    5.4149    7.1658 H       1  UNL1        0.0000
     62 C           3.0727    6.6014    3.3972 C.3     1  UNL1        0.0000
     63 H           4.1051    6.3499    3.6435 H       1  UNL1        0.0000
     64 H           3.0638    6.8542    2.3372 H       1  UNL1        0.0000
     65 C           2.6688    7.8401    4.2058 C.3     1  UNL1        0.0000
     66 H           2.5046    7.5327    5.2424 H       1  UNL1        0.0000
     67 C           1.3756    8.4400    3.6616 C.3     1  UNL1        0.0000
     68 H           1.0411    9.2646    4.2881 H       1  UNL1        0.0000
     69 H           0.6000    7.6823    3.6236 H       1  UNL1        0.0000
     70 H           1.5357    8.8194    2.6543 H       1  UNL1        0.0000
     71 C           3.7837    8.8854    4.1786 C.3     1  UNL1        0.0000
     72 H           3.9993    9.1814    3.1542 H       1  UNL1        0.0000
     73 H           4.6947    8.4887    4.6197 H       1  UNL1        0.0000
     74 H           3.4907    9.7718    4.7370 H       1  UNL1        0.0000
     75 C          -1.1951    1.7672   -0.2096 C.3     1  UNL1        0.0000
     76 H          -0.4797    1.1179   -0.7161 H       1  UNL1        0.0000
     77 H          -2.1218    1.1986   -0.1291 H       1  UNL1        0.0000
     78 C          -1.4481    2.9885   -1.0950 C.3     1  UNL1        0.0000
     79 H          -2.2554    3.5699   -0.6422 H       1  UNL1        0.0000
     80 C          -1.8995    2.5492   -2.4882 C.3     1  UNL1        0.0000
     81 H          -2.7926    1.9322   -2.4258 H       1  UNL1        0.0000
     82 H          -1.1170    1.9709   -2.9742 H       1  UNL1        0.0000
     83 H          -2.1229    3.4138   -3.1095 H       1  UNL1        0.0000
     84 C          -0.2061    3.8680   -1.1936 C.3     1  UNL1        0.0000
     85 H          -0.3922    4.7211   -1.8437 H       1  UNL1        0.0000
     86 H           0.6242    3.2956   -1.5997 H       1  UNL1        0.0000
     87 H           0.0818    4.2287   -0.2106 H       1  UNL1        0.0000
     88 C          -1.3493   -1.2038    4.3984 C.3     1  UNL1        0.0000
     89 H          -0.8300   -1.8154    3.6593 H       1  UNL1        0.0000
     90 H          -0.9121   -1.4282    5.3738 H       1  UNL1        0.0000
     91 C          -2.8254   -1.6254    4.4383 C.3     1  UNL1        0.0000
     92 H          -3.3036   -1.2985    3.5094 H       1  UNL1        0.0000
     93 C          -3.5437   -0.9761    5.6182 C.3     1  UNL1        0.0000
     94 H          -4.5902   -1.2739    5.6357 H       1  UNL1        0.0000
     95 H          -3.4850    0.1091    5.5525 H       1  UNL1        0.0000
     96 H          -3.0787   -1.2757    6.5546 H       1  UNL1        0.0000
     97 C          -2.9325   -3.1478    4.5343 C.3     1  UNL1        0.0000
     98 H          -2.4572   -3.6251    3.6805 H       1  UNL1        0.0000
     99 H          -3.9751   -3.4560    4.5614 H       1  UNL1        0.0000
    100 H          -2.4477   -3.5002    5.4417 H       1  UNL1        0.0000
    101 C           2.4995   -0.6525    5.4689 C.3     1  UNL1        0.0000
    102 H           1.6879   -1.3792    5.4085 H       1  UNL1        0.0000
    103 H           3.2939   -1.0196    4.8186 H       1  UNL1        0.0000
    104 C           3.0200   -0.6298    6.9127 C.3     1  UNL1        0.0000
    105 C           3.6038   -1.9932    7.2829 C.3     1  UNL1        0.0000
    106 H           3.9913   -1.9786    8.2989 H       1  UNL1        0.0000
    107 H           4.4151   -2.2622    6.6105 H       1  UNL1        0.0000
    108 H           2.8362   -2.7614    7.2208 H       1  UNL1        0.0000
    109 C           1.9138   -0.2473    7.8905 C.3     1  UNL1        0.0000
    110 H           1.5183    0.7392    7.6608 H       1  UNL1        0.0000
    111 H           2.2944   -0.2362    8.9095 H       1  UNL1        0.0000
    112 H           1.0902   -0.9555    7.8396 H       1  UNL1        0.0000
    113 C           3.9207    2.1289    0.9782 C.3     1  UNL1        0.0000
    114 H           4.0915    1.0641    0.8186 H       1  UNL1        0.0000
    115 H           3.6368    2.5460    0.0122 H       1  UNL1        0.0000
    116 C           5.2367    2.7759    1.4243 C.3     1  UNL1        0.0000
    117 H           5.0497    3.8402    1.5931 H       1  UNL1        0.0000
    118 C           5.7314    2.1613    2.7298 C.3     1  UNL1        0.0000
    119 H           4.9918    2.2948    3.5132 H       1  UNL1        0.0000
    120 H           6.6635    2.6277    3.0424 H       1  UNL1        0.0000
    121 H           5.9038    1.0951    2.6014 H       1  UNL1        0.0000
    122 C           6.2980    2.6294    0.3341 C.3     1  UNL1        0.0000
    123 H           5.9649    3.0900   -0.5929 H       1  UNL1        0.0000
    124 H           6.4986    1.5777    0.1411 H       1  UNL1        0.0000
    125 H           7.2277    3.1051    0.6380 H       1  UNL1        0.0000
    126 C          -1.9575    6.2145    2.2464 C.3     1  UNL1        0.0000
    127 H          -2.4685    6.8188    2.9955 H       1  UNL1        0.0000
    128 H          -1.2060    6.8630    1.7936 H       1  UNL1        0.0000
    129 C          -2.9698    5.8402    1.1576 C.3     1  UNL1        0.0000
    130 H          -2.4291    5.3111    0.3704 H       1  UNL1        0.0000
    131 C          -4.0637    4.9215    1.6922 C.3     1  UNL1        0.0000
    132 H          -4.7328    4.6209    0.8884 H       1  UNL1        0.0000
    133 H          -4.6531    5.4337    2.4498 H       1  UNL1        0.0000
    134 H          -3.6250    4.0288    2.1287 H       1  UNL1        0.0000
    135 C          -3.5871    7.1025    0.5555 C.3     1  UNL1        0.0000
    136 H          -2.8167    7.7475    0.1402 H       1  UNL1        0.0000
    137 H          -4.1285    7.6611    1.3162 H       1  UNL1        0.0000
    138 H          -4.2827    6.8450   -0.2398 H       1  UNL1        0.0000
    139 H           4.1589    2.5065    7.8033 H       1  UNL1        0.0000
    140 H           3.8146    0.1195    6.9748 H       1  UNL1        0.0000
@<TRIPOS>BOND
     1    83    80    1
     2    82    80    1
     3    80    81    1
     4    80    78    1
     5    85    84    1
     6    86    84    1
     7    84    78    1
     8    84    87    1
     9    78    79    1
    10    78    75    1
    11    76    75    1
    12   123   122    1
    13   138   135    1
    14    75    77    1
    15    75     4    1
    16   115   113    1
    17   136   135    1
    18   124   122    1
    19   122   125    1
    20   122   116    1
    21   130   129    1
    22   135   129    1
    23   135   137    1
    24   114   113    1
    25   132   131    1
    26   113   116    1
    27   113     7    1
    28   129   131    1
    29   129   126    1
    30    16     4    1
    31    16     7    1
    32   116   117    1
    33   116   118    1
    34     4    17    1
    35     4    18    1
    36   131   134    1
    37   131   133    1
    38   128   126    1
    39     7    14    1
    40     7    20    1
    41    17     8    1
    42   126   127    1
    43   126     8    1
    44    64    62    1
    45    18     5    1
    46   121   118    1
    47    70    67    1
    48   118   120    1
    49   118   119    1
    50    14     3    1
    51     8    15    1
    52     8     9    1
    53    72    71    1
    54    15     3    1
    55    20     6    1
    56    62    63    1
    57    62     3    1
    58    62    65    1
    59    92    91    1
    60    69    67    1
    61    89    88    1
    62    67    65    1
    63    67    68    1
    64    98    97    1
    65     3    12    1
    66     5    88    1
    67     5    11    1
    68     5    19    1
    69    71    65    1
    70    71    73    1
    71    71    74    1
    72    65    66    1
    73    88    91    1
    74    88    90    1
    75    91    97    1
    76    91    93    1
    77    97    99    1
    78    97   100    1
    79    39    38    1
    80     9     1    1
    81    47    46    1
    82    19     6    1
    83     6   101    1
    84     6    13    1
    85   103   101    1
    86    48    46    1
    87    41    38    1
    88    12     2    1
    89    46     1    1
    90    46    49    1
    91    38    40    1
    92    38    22    1
    93   102   101    1
    94   101   104    1
    95    95    93    1
    96    93    94    1
    97    93    96    1
    98    43    42    1
    99    13     2    1
   100     1    42    1
   101     1    21    1
   102    59    58    1
   103     2    10    1
   104     2    50    1
   105    42    44    1
   106    42    45    1
   107   107   105    1
   108    22    21    1
   109    22    23    2
   110   104   140    1
   111   104   105    1
   112   104   109    1
   113    21    25    1
   114    58    60    1
   115    58    61    1
   116    58    53    1
   117    36    34    1
   118   108   105    1
   119   105   106    1
   120   110   109    1
   121   139    53    1
   122   112   109    1
   123    23    34    1
   124    23    24    1
   125   109   111    1
   126    50    53    1
   127    50    51    1
   128    50    52    1
   129    53    54    1
   130    34    35    1
   131    34    37    1
   132    25    24    2
   133    25    26    1
   134    27    26    1
   135    24    30    1
   136    26    29    1
   137    26    28    1
   138    54    57    1
   139    54    56    1
   140    54    55    1
   141    30    32    1
   142    30    33    1
   143    30    31    1
