@<TRIPOS>MOLECULE
1,2,6,7,8,9
 117 123 0 0 0
SMALL
GASTEIGER

@<TRIPOS>ATOM
      1 P          12.0334   11.4766    6.1466 P.3     1  UNL1        0.0000
      2 P          12.1506    9.1810    3.8532 P.3     1  UNL1        0.0000
      3 SI         12.2108    7.3500    6.4286 Si      1  UNL1        0.0000
      4 SI         13.6738   10.6061    0.3973 Si      1  UNL1        0.0000
      5 SI         13.4870   14.7000    5.6151 Si      1  UNL1        0.0000
      6 P          12.8756   12.2974    3.0833 P.3     1  UNL1        0.0000
      7 C          12.0490    9.8484    5.4703 C.3     1  UNL1        0.0000
      8 C          12.5269   10.5930    2.8527 C.3     1  UNL1        0.0000
      9 C          12.2814   12.5080    4.7364 C.3     1  UNL1        0.0000
     10 O          12.6411   10.1180    1.5901 O.3     1  UNL1        0.0000
     11 O          12.1912   13.8276    5.0743 O.3     1  UNL1        0.0000
     12 O          11.8570    8.9694    6.4711 O.3     1  UNL1        0.0000
     13 C          15.2043   11.4163    1.1955 C.ar    1  UNL1        0.0000
     14 C          14.6456   13.3867    6.3541 C.ar    1  UNL1        0.0000
     15 C          13.6597   15.5896    2.8950 C.ar    1  UNL1        0.0000
     16 H          12.6651   15.1711    2.8072 H       1  UNL1        0.0000
     17 C          12.6082    7.0431    8.2828 C.3     1  UNL1        0.0000
     18 C          10.7237    6.4024    5.7386 C.ar    1  UNL1        0.0000
     19 C          14.3302   15.4935    4.1122 C.ar    1  UNL1        0.0000
     20 C          12.6605   11.6323   -0.8813 C.3     1  UNL1        0.0000
     21 C          13.7511    7.9565    8.7367 C.3     1  UNL1        0.0000
     22 H          14.6674    7.7223    8.1985 H       1  UNL1        0.0000
     23 H          13.9372    7.8227    9.8018 H       1  UNL1        0.0000
     24 H          13.5027    9.0016    8.5632 H       1  UNL1        0.0000
     25 C          11.9396   12.8108   -0.2208 C.3     1  UNL1        0.0000
     26 H          11.2701   12.4620    0.5668 H       1  UNL1        0.0000
     27 H          11.3384   13.3433   -0.9571 H       1  UNL1        0.0000
     28 H          12.6430   13.5166    0.2175 H       1  UNL1        0.0000
     29 C          13.5656   12.1538   -1.9979 C.3     1  UNL1        0.0000
     30 H          14.3561   12.7887   -1.6056 H       1  UNL1        0.0000
     31 H          12.9838   12.7327   -2.7141 H       1  UNL1        0.0000
     32 H          14.0267   11.3254   -2.5295 H       1  UNL1        0.0000
     33 C          14.2528    8.9319   -0.2718 C.ar    1  UNL1        0.0000
     34 C          13.7104    7.0856    5.2838 C.ar    1  UNL1        0.0000
     35 C          14.7303    8.0367    5.2334 C.ar    1  UNL1        0.0000
     36 H          14.6919    8.8975    5.8891 H       1  UNL1        0.0000
     37 C          15.6019   16.0536    4.2054 C.ar    1  UNL1        0.0000
     38 H          16.1404   15.9852    5.1396 H       1  UNL1        0.0000
     39 C          10.6519    5.0117    5.7899 C.ar    1  UNL1        0.0000
     40 H          11.4590    4.4549    6.2423 H       1  UNL1        0.0000
     41 C          11.3687    7.3354    9.1305 C.3     1  UNL1        0.0000
     42 H          11.0538    8.3678    9.0016 H       1  UNL1        0.0000
     43 H          11.5834    7.1696   10.1857 H       1  UNL1        0.0000
     44 H          10.5437    6.6874    8.8424 H       1  UNL1        0.0000
     45 C          16.1818   16.6911    3.1236 C.ar    1  UNL1        0.0000
     46 H          17.1682   17.1229    3.2164 H       1  UNL1        0.0000
     47 C          15.4856   12.7802    1.1774 C.ar    1  UNL1        0.0000
     48 H          14.8170   13.4627    0.6745 H       1  UNL1        0.0000
     49 C          16.1002   10.5761    1.8564 C.ar    1  UNL1        0.0000
     50 H          15.9013    9.5137    1.8812 H       1  UNL1        0.0000
     51 C          12.6797   16.0233    6.7399 C.3     1  UNL1        0.0000
     52 C          14.6669   13.0348    7.7009 C.ar    1  UNL1        0.0000
     53 H          14.1376   13.6418    8.4196 H       1  UNL1        0.0000
     54 C           9.5652    4.3323    5.2710 C.ar    1  UNL1        0.0000
     55 H           9.5298    3.2536    5.3239 H       1  UNL1        0.0000
     56 C          13.7696   16.8112    7.4624 C.3     1  UNL1        0.0000
     57 H          14.3708   16.1629    8.0953 H       1  UNL1        0.0000
     58 H          13.3273   17.5856    8.0877 H       1  UNL1        0.0000
     59 H          14.4300   17.2906    6.7436 H       1  UNL1        0.0000
     60 C          13.7880    5.9977    4.4175 C.ar    1  UNL1        0.0000
     61 H          13.0064    5.2530    4.4340 H       1  UNL1        0.0000
     62 C          15.2131    8.8714   -1.2771 C.ar    1  UNL1        0.0000
     63 H          15.6174    9.7904   -1.6751 H       1  UNL1        0.0000
     64 C          13.7691    7.7326    0.2436 C.ar    1  UNL1        0.0000
     65 H          13.0314    7.7569    1.0331 H       1  UNL1        0.0000
     66 C           9.6671    7.0858    5.1419 C.ar    1  UNL1        0.0000
     67 H           9.6947    8.1659    5.0908 H       1  UNL1        0.0000
     68 C          13.0277    5.5911    8.4957 C.3     1  UNL1        0.0000
     69 H          12.2009    4.9190    8.2843 H       1  UNL1        0.0000
     70 H          13.3325    5.4332    9.5294 H       1  UNL1        0.0000
     71 H          13.8619    5.3278    7.8489 H       1  UNL1        0.0000
     72 C          11.6031   10.7106   -1.5005 C.3     1  UNL1        0.0000
     73 H          12.0716    9.8667   -2.0025 H       1  UNL1        0.0000
     74 H          11.0087   11.2585   -2.2305 H       1  UNL1        0.0000
     75 H          10.9323   10.3247   -0.7369 H       1  UNL1        0.0000
     76 C          11.8788   16.9845    5.8572 C.3     1  UNL1        0.0000
     77 H          12.5251   17.4758    5.1329 H       1  UNL1        0.0000
     78 H          11.4056   17.7513    6.4694 H       1  UNL1        0.0000
     79 H          11.1011   16.4494    5.3179 H       1  UNL1        0.0000
     80 C           8.5778    6.4137    4.6192 C.ar    1  UNL1        0.0000
     81 H           7.7733    6.9713    4.1631 H       1  UNL1        0.0000
     82 C           8.5237    5.0321    4.6839 C.ar    1  UNL1        0.0000
     83 H           7.6748    4.5015    4.2786 H       1  UNL1        0.0000
     84 C          16.6141   13.2884    1.7968 C.ar    1  UNL1        0.0000
     85 H          16.8047   14.3508    1.7749 H       1  UNL1        0.0000
     86 C          14.2359   16.2207    1.8076 C.ar    1  UNL1        0.0000
     87 H          13.6970   16.2887    0.8732 H       1  UNL1        0.0000
     88 C          15.7855    7.9035    4.3498 C.ar    1  UNL1        0.0000
     89 H          16.5677    8.6478    4.3306 H       1  UNL1        0.0000
     90 C          15.4988   16.7774    1.9209 C.ar    1  UNL1        0.0000
     91 H          15.9499   17.2769    1.0756 H       1  UNL1        0.0000
     92 C          17.4929   12.4380    2.4447 C.ar    1  UNL1        0.0000
     93 H          18.3740   12.8334    2.9282 H       1  UNL1        0.0000
     94 C          17.2338   11.0777    2.4692 C.ar    1  UNL1        0.0000
     95 H          17.9259   10.4065    2.9589 H       1  UNL1        0.0000
     96 C          15.3545   11.9159    8.1399 C.ar    1  UNL1        0.0000
     97 H          15.3502   11.6586    9.1892 H       1  UNL1        0.0000
     98 C          11.7257   15.3998    7.7606 C.3     1  UNL1        0.0000
     99 H          10.9674   14.8036    7.2577 H       1  UNL1        0.0000
    100 H          11.2242   16.1810    8.3309 H       1  UNL1        0.0000
    101 H          12.2538   14.7573    8.4606 H       1  UNL1        0.0000
    102 C          15.8389    6.8217    3.4868 C.ar    1  UNL1        0.0000
    103 H          16.6533    6.7263    2.7832 H       1  UNL1        0.0000
    104 C          15.3515   12.5817    5.4608 C.ar    1  UNL1        0.0000
    105 H          15.3697   12.8395    4.4082 H       1  UNL1        0.0000
    106 C          15.6670    7.6585   -1.7613 C.ar    1  UNL1        0.0000
    107 H          16.4131    7.6339   -2.5426 H       1  UNL1        0.0000
    108 C          14.8385    5.8665    3.5267 C.ar    1  UNL1        0.0000
    109 H          14.8746    5.0201    2.8567 H       1  UNL1        0.0000
    110 C          15.1687    6.4752   -1.2414 C.ar    1  UNL1        0.0000
    111 H          15.5216    5.5264   -1.6188 H       1  UNL1        0.0000
    112 C          16.0361   11.1209    7.2351 C.ar    1  UNL1        0.0000
    113 H          16.5630   10.2406    7.5744 H       1  UNL1        0.0000
    114 C          16.0403   11.4637    5.8930 C.ar    1  UNL1        0.0000
    115 H          16.5766   10.8620    5.1748 H       1  UNL1        0.0000
    116 C          14.2199    6.5158   -0.2344 C.ar    1  UNL1        0.0000
    117 H          13.8273    5.5977    0.1783 H       1  UNL1        0.0000
@<TRIPOS>BOND
     1    31    29    1
     2   107   106    1
     3    32    29    1
     4    74    72    1
     5    73    72    1
     6    29    30    1
     7    29    20    1
     8   106    62   ar
     9   106   110   ar
    10    63    62    1
    11   111   110    1
    12    72    20    1
    13    72    75    1
    14    62    33   ar
    15   110   116   ar
    16    27    25    1
    17    20    25    1
    18    20     4    1
    19    33    64   ar
    20    33     4    1
    21   116   117    1
    22   116    64   ar
    23    25    28    1
    24    25    26    1
    25    64    65    1
    26     4    13    1
    27     4    10    1
    28    48    47    1
    29    87    86    1
    30    91    90    1
    31    47    13   ar
    32    47    84   ar
    33    13    49   ar
    34    10     8    1
    35    85    84    1
    36    84    92   ar
    37    86    90   ar
    38    86    15   ar
    39    49    50    1
    40    49    94   ar
    41    90    45   ar
    42    92    94   ar
    43    92    93    1
    44    94    95    1
    45   103   102    1
    46    16    15    1
    47     8     6    1
    48     8     2    1
    49   109   108    1
    50    15    19   ar
    51     6     9    1
    52    45    46    1
    53    45    37   ar
    54   102   108   ar
    55   102    88   ar
    56   108    60   ar
    57     2     7    1
    58    19    37   ar
    59    19     5    1
    60    81    80    1
    61    37    38    1
    62    83    82    1
    63    89    88    1
    64    88    35   ar
    65   105   104    1
    66    60    61    1
    67    60    34   ar
    68    80    82   ar
    69    80    66   ar
    70    82    54   ar
    71     9    11    1
    72     9     1    1
    73    11     5    1
    74    67    66    1
    75    77    76    1
    76    66    18   ar
    77   115   114    1
    78    35    34   ar
    79    35    36    1
    80    54    55    1
    81    54    39   ar
    82    34     3    1
    83    79    76    1
    84   104   114   ar
    85   104    14   ar
    86     7     1    1
    87     7    12    1
    88     5    14    1
    89     5    51    1
    90    18    39   ar
    91    18     3    1
    92    39    40    1
    93    76    78    1
    94    76    51    1
    95   114   112   ar
    96    14    52   ar
    97     3    12    1
    98     3    17    1
    99    51    56    1
   100    51    98    1
   101    59    56    1
   102   112   113    1
   103   112    96   ar
   104    99    98    1
   105    56    58    1
   106    56    57    1
   107    52    96   ar
   108    52    53    1
   109    98   100    1
   110    98   101    1
   111    71    68    1
   112    96    97    1
   113    22    21    1
   114    17    68    1
   115    17    21    1
   116    17    41    1
   117    69    68    1
   118    68    70    1
   119    24    21    1
   120    21    23    1
   121    44    41    1
   122    42    41    1
   123    41    43    1
