@<TRIPOS>MOLECULE
1
 12 12 0 0 0
SMALL
GASTEIGER

@<TRIPOS>ATOM
      1 N           2.9846   17.3905    7.8796 N.pl3   1  UNL1       -0.1294
      2 C           3.5945   16.4192    7.1745 C.ar    1  UNL1        0.0724
      3 C           4.6106   15.6369    7.7567 C.ar    1  UNL1       -0.0372
      4 C           5.2212   14.6336    7.0368 C.ar    1  UNL1       -0.0599
      5 C           4.8492   14.3774    5.7248 C.ar    1  UNL1       -0.0616
      6 C           3.8524   15.1405    5.1354 C.ar    1  UNL1       -0.0599
      7 C           3.2299   16.1468    5.8420 C.ar    1  UNL1       -0.0372
      8 H           4.8874   15.8486    8.7818 H       1  UNL1        0.0637
      9 H           5.9973   14.0405    7.5002 H       1  UNL1        0.0618
     10 H           5.3322   13.5897    5.1664 H       1  UNL1        0.0618
     11 H           3.5601   14.9451    4.1129 H       1  UNL1        0.0618
     12 H           2.4480   16.7494    5.3960 H       1  UNL1        0.0637
@<TRIPOS>BOND
     1    11     6    1
     2     6     5   ar
     3     6     7   ar
     4    10     5    1
     5    12     7    1
     6     5     4   ar
     7     7     2   ar
     8     4     9    1
     9     4     3   ar
    10     2     3   ar
    11     2     1    1
    12     3     8    1
