@<TRIPOS>MOLECULE
5
 5 4 0 0 0
SMALL
GASTEIGER

@<TRIPOS>ATOM
      1 CL          6.4145    1.9300    3.3933 Cl      1  UNL1       -0.0489
      2 CL          6.3835    4.8536    2.2460 Cl      1  UNL1       -0.0489
      3 CL          7.6559    2.5803    0.5195 Cl      1  UNL1       -0.0489
      4 P           6.1314    2.9597    1.7235 P.3     1  UNL1        0.2171
      5 N           4.7627    2.6526    1.0932 N.3     1  UNL1       -0.0705
@<TRIPOS>BOND
     1     3     4    1
     2     5     4    1
     3     4     2    1
     4     4     1    1
