@<TRIPOS>MOLECULE
1
 30 30 0 0 0
SMALL
GASTEIGER

@<TRIPOS>ATOM
      1 N          14.8462    4.6917    2.7218 N.pl3   1  UNL1       -0.1288
      2 C          14.3087    5.7991    2.1967 C.ar    1  UNL1        0.0792
      3 C          13.3797    5.7127    1.1245 C.ar    1  UNL1       -0.0200
      4 C          12.8229    6.8699    0.6155 C.ar    1  UNL1       -0.0564
      5 C          13.1636    8.1146    1.1191 C.ar    1  UNL1       -0.0611
      6 C          14.0801    8.2089    2.1500 C.ar    1  UNL1       -0.0564
      7 C          14.6616    7.0786    2.6948 C.ar    1  UNL1       -0.0200
      8 C          12.9925    4.3469    0.6120 C.3     1  UNL1       -0.0196
      9 C          12.6381    4.3284   -0.8743 C.3     1  UNL1       -0.0586
     10 C          11.8245    3.8191    1.4529 C.3     1  UNL1       -0.0586
     11 C          15.6600    7.1911    3.8222 C.3     1  UNL1       -0.0196
     12 C          14.9853    7.7218    5.0895 C.3     1  UNL1       -0.0586
     13 C          16.8438    8.0787    3.4303 C.3     1  UNL1       -0.0586
     14 H          12.1072    6.8108   -0.1898 H       1  UNL1        0.0621
     15 H          12.7153    9.0065    0.7071 H       1  UNL1        0.0618
     16 H          14.3430    9.1824    2.5368 H       1  UNL1        0.0621
     17 H          13.8508    3.6794    0.7718 H       1  UNL1        0.0344
     18 H          13.4124    4.8181   -1.4602 H       1  UNL1        0.0235
     19 H          12.5442    3.3000   -1.2163 H       1  UNL1        0.0235
     20 H          11.6907    4.8279   -1.0603 H       1  UNL1        0.0235
     21 H          12.1217    3.7620    2.4990 H       1  UNL1        0.0235
     22 H          10.9682    4.4846    1.3634 H       1  UNL1        0.0235
     23 H          11.5328    2.8271    1.1157 H       1  UNL1        0.0235
     24 H          16.0355    6.1813    4.0281 H       1  UNL1        0.0344
     25 H          14.1406    7.0919    5.3597 H       1  UNL1        0.0235
     26 H          15.6919    7.7339    5.9171 H       1  UNL1        0.0235
     27 H          14.6198    8.7344    4.9357 H       1  UNL1        0.0235
     28 H          16.5324    9.1135    3.3116 H       1  UNL1        0.0235
     29 H          17.2756    7.7441    2.4897 H       1  UNL1        0.0235
     30 H          17.6132    8.0412    4.1988 H       1  UNL1        0.0235
@<TRIPOS>BOND
     1    18     9    1
     2    19     9    1
     3    20     9    1
     4     9     8    1
     5    14     4    1
     6     8    17    1
     7     8     3    1
     8     8    10    1
     9     4     5   ar
    10     4     3   ar
    11    15     5    1
    12    23    10    1
    13     5     6   ar
    14     3     2   ar
    15    22    10    1
    16    10    21    1
    17     6    16    1
    18     6     7   ar
    19     2     7   ar
    20     2     1    1
    21    29    13    1
    22     7    11    1
    23    28    13    1
    24    13    11    1
    25    13    30    1
    26    11    24    1
    27    11    12    1
    28    27    12    1
    29    12    25    1
    30    12    26    1
