@<TRIPOS>MOLECULE
1
 30 30 0 0 0
SMALL
GASTEIGER

@<TRIPOS>ATOM
      1 N          -5.7255   10.1684    4.1477 N.pl3   1  UNL1       -0.1288
      2 C          -5.2224    8.9511    3.9019 C.ar    1  UNL1        0.0792
      3 C          -5.8430    8.1085    2.9461 C.ar    1  UNL1       -0.0200
      4 C          -5.2812    6.8786    2.6663 C.ar    1  UNL1       -0.0564
      5 H          -5.7399    6.2279    1.9381 H       1  UNL1        0.0621
      6 C          -4.1228    6.4644    3.3044 C.ar    1  UNL1       -0.0611
      7 H          -3.6863    5.5069    3.0614 H       1  UNL1        0.0618
      8 C          -3.5330    7.2675    4.2661 C.ar    1  UNL1       -0.0564
      9 H          -2.6433    6.9173    4.7662 H       1  UNL1        0.0621
     10 C          -4.0712    8.4978    4.5938 C.ar    1  UNL1       -0.0200
     11 C          -7.1125    8.6232    2.3154 C.3     1  UNL1       -0.0196
     12 H          -6.9562    9.6975    2.1359 H       1  UNL1        0.0344
     13 C          -7.4720    7.9397    0.9999 C.3     1  UNL1       -0.0586
     14 H          -6.6254    7.9543    0.3180 H       1  UNL1        0.0235
     15 H          -8.3014    8.4625    0.5281 H       1  UNL1        0.0235
     16 H          -7.7747    6.9077    1.1644 H       1  UNL1        0.0235
     17 C          -8.2657    8.5067    3.3218 C.3     1  UNL1       -0.0586
     18 H          -8.0580    9.1422    4.1863 H       1  UNL1        0.0235
     19 H          -8.3838    7.4765    3.6538 H       1  UNL1        0.0235
     20 H          -9.1963    8.8383    2.8661 H       1  UNL1        0.0235
     21 C          -3.5098    9.3894    5.6755 C.3     1  UNL1       -0.0196
     22 H          -4.3858    9.8639    6.1551 H       1  UNL1        0.0344
     23 C          -2.7214    8.6252    6.7376 C.3     1  UNL1       -0.0586
     24 H          -3.2895    7.7712    7.0976 H       1  UNL1        0.0235
     25 H          -2.5071    9.2733    7.5856 H       1  UNL1        0.0235
     26 H          -1.7735    8.2752    6.3360 H       1  UNL1        0.0235
     27 C          -2.6570   10.5154    5.0724 C.3     1  UNL1       -0.0586
     28 H          -3.3080   11.2216    4.5397 H       1  UNL1        0.0235
     29 H          -1.9285   10.1027    4.3791 H       1  UNL1        0.0235
     30 H          -2.1207   11.0483    5.8566 H       1  UNL1        0.0235
@<TRIPOS>BOND
     1    14    13    1
     2    15    13    1
     3    13    16    1
     4    13    11    1
     5     5     4    1
     6    12    11    1
     7    11     3    1
     8    11    17    1
     9     4     3   ar
    10     4     6   ar
    11    20    17    1
    12     3     2   ar
    13     7     6    1
    14     6     8   ar
    15    17    19    1
    16    17    18    1
    17     2     1    1
    18     2    10   ar
    19     8    10   ar
    20     8     9    1
    21    29    27    1
    22    28    27    1
    23    10    21    1
    24    27    21    1
    25    27    30    1
    26    21    22    1
    27    21    23    1
    28    26    23    1
    29    23    24    1
    30    23    25    1
