@<TRIPOS>MOLECULE
1
 24 25 0 0 0
SMALL
GASTEIGER

@<TRIPOS>ATOM
      1 N           0.9474   11.0014    5.0099 N.3     1  UNL1       -0.0117
      2 N          -0.3107   11.1176    5.3440 N.pl3   1  UNL1       -0.2010
      3 C          -0.6473   12.0082    6.3893 C.ar    1  UNL1        0.0530
      4 C           0.0363   13.2218    6.4865 C.ar    1  UNL1       -0.0389
      5 C          -0.2472   14.0916    7.5195 C.ar    1  UNL1       -0.0600
      6 C          -1.1921   13.7574    8.4786 C.ar    1  UNL1       -0.0616
      7 C          -1.8553   12.5434    8.3959 C.ar    1  UNL1       -0.0600
      8 C          -1.5897   11.6681    7.3606 C.ar    1  UNL1       -0.0389
      9 C          -1.3209   10.4536    4.6366 C.ar    1  UNL1        0.0530
     10 C          -0.9733    9.4111    3.7702 C.ar    1  UNL1       -0.0389
     11 C          -1.9433    8.7398    3.0574 C.ar    1  UNL1       -0.0600
     12 C          -3.2778    9.1005    3.1691 C.ar    1  UNL1       -0.0616
     13 C          -3.6224   10.1699    3.9807 C.ar    1  UNL1       -0.0600
     14 C          -2.6617   10.8496    4.7027 C.ar    1  UNL1       -0.0389
     15 H           0.7859   13.4519    5.7430 H       1  UNL1        0.0637
     16 H           0.2709   15.0373    7.5807 H       1  UNL1        0.0618
     17 H          -1.4104   14.4383    9.2876 H       1  UNL1        0.0618
     18 H          -2.5810   12.2724    9.1489 H       1  UNL1        0.0618
     19 H          -2.0928   10.7135    7.3114 H       1  UNL1        0.0637
     20 H           0.0721    9.1674    3.6577 H       1  UNL1        0.0637
     21 H          -1.6560    7.9306    2.4019 H       1  UNL1        0.0618
     22 H          -4.0371    8.5715    2.6136 H       1  UNL1        0.0618
     23 H          -4.6533   10.4870    4.0448 H       1  UNL1        0.0618
     24 H          -2.9501   11.7025    5.2975 H       1  UNL1        0.0637
@<TRIPOS>BOND
     1    21    11    1
     2    22    12    1
     3    11    12   ar
     4    11    10   ar
     5    12    13   ar
     6    20    10    1
     7    10     9   ar
     8    13    23    1
     9    13    14   ar
    10     9    14   ar
    11     9     2    1
    12    14    24    1
    13     1     2    1
    14     2     3    1
    15    15     4    1
    16     3     4   ar
    17     3     8   ar
    18     4     5   ar
    19    19     8    1
    20     8     7   ar
    21     5    16    1
    22     5     6   ar
    23     7     6   ar
    24     7    18    1
    25     6    17    1
