@<TRIPOS>MOLECULE
1
 15 14 0 0 0
SMALL
GASTEIGER

@<TRIPOS>ATOM
      1 N           8.6334    4.1273   15.8648 N.3     1  UNL1       -0.1315
      2 C           9.3161    4.3149   14.9432 C.3     1  UNL1        0.1066
      3 C          10.1101    4.5210   13.7583 C.3     1  UNL1       -0.0126
      4 C          10.9780    5.7782   13.9281 C.3     1  UNL1       -0.0582
      5 H          10.3587    6.6557   14.1016 H       1  UNL1        0.0236
      6 H          11.5620    5.9403   13.0252 H       1  UNL1        0.0236
      7 H          11.6612    5.6652   14.7671 H       1  UNL1        0.0236
      8 C          10.9960    3.2881   13.5294 C.3     1  UNL1       -0.0582
      9 H          10.3980    2.3803   13.4848 H       1  UNL1        0.0236
     10 H          11.7228    3.1892   14.3333 H       1  UNL1        0.0236
     11 H          11.5362    3.3995   12.5921 H       1  UNL1        0.0236
     12 C           9.1114    4.7094   12.6056 C.3     1  UNL1       -0.0582
     13 H           8.4563    3.8444   12.5326 H       1  UNL1        0.0236
     14 H           9.6527    4.8302   11.6701 H       1  UNL1        0.0236
     15 H           8.4981    5.5938   12.7682 H       1  UNL1        0.0236
@<TRIPOS>BOND
     1    14    12    1
     2    13    12    1
     3    11     8    1
     4    12    15    1
     5    12     3    1
     6     6     4    1
     7     9     8    1
     8     8     3    1
     9     8    10    1
    10     3     4    1
    11     3     2    1
    12     4     5    1
    13     4     7    1
    14     2     1    1
