@<TRIPOS>MOLECULE
1
 6 5 0 0 0
SMALL
GASTEIGER

@<TRIPOS>ATOM
      1 N           2.7733    2.1202    4.0004 N.3     1  UNL1       -0.1324
      2 C           2.2359    1.1328    4.2781 C.3     1  UNL1        0.0975
      3 C           1.6237   -0.1197    4.5993 C.3     1  UNL1       -0.0400
      4 H           1.6080   -0.2634    5.6799 H       1  UNL1        0.0250
      5 H           2.1864   -0.9326    4.1400 H       1  UNL1        0.0250
      6 H           0.6004   -0.1421    4.2244 H       1  UNL1        0.0250
@<TRIPOS>BOND
     1     1     2    1
     2     5     3    1
     3     6     3    1
     4     2     3    1
     5     3     4    1
