@<TRIPOS>MOLECULE
1
 6 5 0 0 0
SMALL
GASTEIGER

@<TRIPOS>ATOM
      1 N           0.6263    2.0959   10.7001 N.3     1  UNL1       -0.1324
      2 C           0.2571    2.4134    9.6630 C.3     1  UNL1        0.0975
      3 C          -0.2169    2.8075    8.3825 C.3     1  UNL1       -0.0400
      4 H          -0.9211    2.0656    8.0061 H       1  UNL1        0.0250
      5 H           0.6282    2.8825    7.6986 H       1  UNL1        0.0250
      6 H          -0.7088    3.7776    8.4557 H       1  UNL1        0.0250
@<TRIPOS>BOND
     1     5     3    1
     2     4     3    1
     3     3     6    1
     4     3     2    1
     5     2     1    1
