@<TRIPOS>MOLECULE
4
 16 16 0 0 0
SMALL
GASTEIGER

@<TRIPOS>ATOM
      1 F           0.5064    2.5041   12.9938 F       1  UNL1       -0.1659
      2 F          -1.1487    3.8344   12.6401 F       1  UNL1       -0.1659
      3 F          -1.5128    1.7961   13.2302 F       1  UNL1       -0.1659
      4 N          -0.1964    0.4873    6.0273 N.3     1  UNL1       -0.1263
      5 C          -0.3679    0.9099    7.0835 C.3     1  UNL1        0.1344
      6 C          -0.5367    1.3638    8.3972 C.ar    1  UNL1       -0.0198
      7 C          -0.8017    0.4116    9.3869 C.ar    1  UNL1       -0.0560
      8 H          -0.9136   -0.6267    9.1151 H       1  UNL1        0.0621
      9 C          -0.8939    0.8125   10.7039 C.ar    1  UNL1       -0.0498
     10 H          -1.0936    0.0919   11.4820 H       1  UNL1        0.0623
     11 C          -0.7227    2.1539   11.0258 C.ar    1  UNL1        0.0548
     12 C          -0.4739    3.1047   10.0427 C.ar    1  UNL1       -0.0498
     13 H          -0.3519    4.1418   10.3144 H       1  UNL1        0.0623
     14 C          -0.3831    2.7128    8.7225 C.ar    1  UNL1       -0.0560
     15 H          -0.1859    3.4378    7.9483 H       1  UNL1        0.0621
     16 C          -0.7339    2.5751   12.4738 C.3     1  UNL1        0.4174
@<TRIPOS>BOND
     1     4     5    1
     2     5     6    1
     3    15    14    1
     4     6    14   ar
     5     6     7   ar
     6    14    12   ar
     7     8     7    1
     8     7     9   ar
     9    12    13    1
    10    12    11   ar
    11     9    11   ar
    12     9    10    1
    13    11    16    1
    14    16     2    1
    15    16     1    1
    16    16     3    1
