@<TRIPOS>MOLECULE
1
 30 30 0 0 0
SMALL
GASTEIGER

@<TRIPOS>ATOM
      1 N           1.3498   -5.4105    2.2622 N.pl3   1  UNL1       -0.1288
      2 C           1.8804   -6.5614    1.8186 C.ar    1  UNL1        0.0792
      3 C           2.8915   -7.2294    2.5475 C.ar    1  UNL1       -0.0200
      4 C           3.4121   -8.4103    2.0474 C.ar    1  UNL1       -0.0564
      5 H           4.1765   -8.9350    2.6008 H       1  UNL1        0.0621
      6 C           2.9631   -8.9389    0.8509 C.ar    1  UNL1       -0.0611
      7 H           3.3844   -9.8597    0.4751 H       1  UNL1        0.0618
      8 C           1.9598   -8.2975    0.1430 C.ar    1  UNL1       -0.0564
      9 H           1.6067   -8.7350   -0.7778 H       1  UNL1        0.0621
     10 C           1.4076   -7.1176    0.6042 C.ar    1  UNL1       -0.0200
     11 C           3.3130   -6.6947    3.8943 C.3     1  UNL1       -0.0196
     12 H           2.9527   -5.6503    3.9692 H       1  UNL1        0.0344
     13 C           2.6209   -7.5117    4.9908 C.3     1  UNL1       -0.0586
     14 H           2.9186   -8.5565    4.9282 H       1  UNL1        0.0235
     15 H           2.8843   -7.1297    5.9738 H       1  UNL1        0.0235
     16 H           1.5402   -7.4524    4.8722 H       1  UNL1        0.0235
     17 C           4.8276   -6.6929    4.0954 C.3     1  UNL1       -0.0586
     18 H           5.0752   -6.2024    5.0350 H       1  UNL1        0.0235
     19 H           5.2183   -7.7065    4.1346 H       1  UNL1        0.0235
     20 H           5.3197   -6.1621    3.2841 H       1  UNL1        0.0235
     21 C           0.2789   -6.4052   -0.1016 C.3     1  UNL1       -0.0196
     22 H           0.4238   -5.3277    0.0694 H       1  UNL1        0.0344
     23 C          -1.0511   -6.7914    0.5587 C.3     1  UNL1       -0.0586
     24 H          -1.1878   -7.8713    0.5407 H       1  UNL1        0.0235
     25 H          -1.8812   -6.3267    0.0293 H       1  UNL1        0.0235
     26 H          -1.0572   -6.4478    1.5947 H       1  UNL1        0.0235
     27 C           0.2319   -6.6684   -1.6046 C.3     1  UNL1       -0.0586
     28 H          -0.0731   -7.6909   -1.8160 H       1  UNL1        0.0235
     29 H           1.2054   -6.4903   -2.0547 H       1  UNL1        0.0235
     30 H          -0.4886   -6.0014   -2.0734 H       1  UNL1        0.0235
@<TRIPOS>BOND
     1    30    27    1
     2    29    27    1
     3    28    27    1
     4    27    21    1
     5     9     8    1
     6    21    22    1
     7    21    23    1
     8    21    10    1
     9    25    23    1
    10     8    10   ar
    11     8     6   ar
    12     7     6    1
    13    24    23    1
    14    23    26    1
    15    10     2   ar
    16     6     4   ar
    17     2     1    1
    18     2     3   ar
    19     4     3   ar
    20     4     5    1
    21     3    11    1
    22    20    17    1
    23    11    12    1
    24    11    17    1
    25    11    13    1
    26    17    19    1
    27    17    18    1
    28    16    13    1
    29    14    13    1
    30    13    15    1
