@<TRIPOS>MOLECULE
1
 30 30 0 0 0
SMALL
GASTEIGER

@<TRIPOS>ATOM
      1 N           1.2510   -5.4086    2.2409 N.pl3   1  UNL1       -0.1288
      2 C           1.8001   -6.5705    1.8536 C.ar    1  UNL1        0.0792
      3 C           2.6940   -7.2634    2.7050 C.ar    1  UNL1       -0.0200
      4 C           3.2416   -8.4589    2.2758 C.ar    1  UNL1       -0.0564
      5 H           3.9167   -9.0016    2.9210 H       1  UNL1        0.0621
      6 C           2.9305   -8.9787    1.0316 C.ar    1  UNL1       -0.0611
      7 H           3.3709   -9.9115    0.7114 H       1  UNL1        0.0618
      8 C           2.0397   -8.3143    0.2030 C.ar    1  UNL1       -0.0564
      9 H           1.7937   -8.7466   -0.7546 H       1  UNL1        0.0621
     10 C           1.4651   -7.1194    0.5904 C.ar    1  UNL1       -0.0200
     11 C           2.9608   -6.7154    4.0867 C.3     1  UNL1       -0.0196
     12 H           2.5491   -5.6861    4.1191 H       1  UNL1        0.0344
     13 C           2.2078   -7.5510    5.1270 C.3     1  UNL1       -0.0586
     14 H           1.1453   -7.5690    4.8925 H       1  UNL1        0.0235
     15 H           2.3391   -7.1243    6.1188 H       1  UNL1        0.0235
     16 H           2.5766   -8.5746    5.1339 H       1  UNL1        0.0235
     17 C           4.4509   -6.6549    4.4208 C.3     1  UNL1       -0.0586
     18 H           4.9865   -6.0776    3.6709 H       1  UNL1        0.0235
     19 H           4.8809   -7.6526    4.4600 H       1  UNL1        0.0235
     20 H           4.5948   -6.1900    5.3944 H       1  UNL1        0.0235
     21 C           0.4406   -6.3784   -0.2334 C.3     1  UNL1       -0.0196
     22 H           0.5841   -5.3039   -0.0348 H       1  UNL1        0.0344
     23 C          -0.9616   -6.7345    0.2778 C.3     1  UNL1       -0.0586
     24 H          -1.0697   -6.3788    1.3035 H       1  UNL1        0.0235
     25 H          -1.1203   -7.8112    0.2497 H       1  UNL1        0.0235
     26 H          -1.7173   -6.2521   -0.3383 H       1  UNL1        0.0235
     27 C           0.5546   -6.6403   -1.7328 C.3     1  UNL1       -0.0586
     28 H           1.5740   -6.4775   -2.0744 H       1  UNL1        0.0235
     29 H          -0.1013   -5.9639   -2.2767 H       1  UNL1        0.0235
     30 H           0.2598   -7.6585   -1.9768 H       1  UNL1        0.0235
@<TRIPOS>BOND
     1    29    27    1
     2    28    27    1
     3    30    27    1
     4    27    21    1
     5     9     8    1
     6    26    23    1
     7    21    22    1
     8    21    23    1
     9    21    10    1
    10     8    10   ar
    11     8     6   ar
    12    25    23    1
    13    23    24    1
    14    10     2   ar
    15     7     6    1
    16     6     4   ar
    17     2     1    1
    18     2     3   ar
    19     4     3   ar
    20     4     5    1
    21     3    11    1
    22    18    17    1
    23    11    12    1
    24    11    17    1
    25    11    13    1
    26    17    19    1
    27    17    20    1
    28    14    13    1
    29    13    16    1
    30    13    15    1
