@<TRIPOS>MOLECULE
1
 15 14 0 0 0
SMALL
GASTEIGER

@<TRIPOS>ATOM
      1 N          -0.0000    0.0001   16.6715 N.3     1  UNL1       -0.1315
      2 C           0.0000    0.0001   17.8170 C.3     1  UNL1        0.1066
      3 C          -0.0000    0.0000   19.2593 C.3     1  UNL1       -0.0126
      4 C          -0.6336   -1.3151   19.7332 C.3     1  UNL1       -0.0582
      5 H          -0.6605   -1.3355   20.8202 H       1  UNL1        0.0236
      6 H          -0.0551   -2.1670   19.3826 H       1  UNL1        0.0236
      7 H          -1.6495   -1.4094   19.3559 H       1  UNL1        0.0236
      8 C           1.4556    0.1089   19.7333 C.3     1  UNL1       -0.0582
      9 H           1.4867    0.0957   20.8203 H       1  UNL1        0.0236
     10 H           1.9042    1.0358   19.3828 H       1  UNL1        0.0236
     11 H           2.0454   -0.7238   19.3559 H       1  UNL1        0.0236
     12 C          -0.8222    1.2062   19.7333 C.3     1  UNL1       -0.0582
     13 H          -0.8264    1.2396   20.8203 H       1  UNL1        0.0236
     14 H          -1.8492    1.1312   19.3827 H       1  UNL1        0.0236
     15 H          -0.3959    2.1333   19.3560 H       1  UNL1        0.0236
@<TRIPOS>BOND
     1     1     2    1
     2     2     3    1
     3     3     4    1
     4     3     8    1
     5     3    12    1
     6     7     4    1
     7    11     8    1
     8    15    12    1
     9     6     4    1
    10    14    12    1
    11    10     8    1
    12     4     5    1
    13     8     9    1
    14    12    13    1
