@<TRIPOS>MOLECULE
1
 15 14 0 0 0
SMALL
GASTEIGER

@<TRIPOS>ATOM
      1 N           0.0000    0.0000   11.3278 N.3     1  UNL1       -0.1315
      2 C           0.0000    0.0000   10.1823 C.3     1  UNL1        0.1066
      3 C          -0.0000   -0.0000    8.7414 C.3     1  UNL1       -0.0126
      4 C           0.5362   -1.3572    8.2664 C.3     1  UNL1       -0.0582
      5 H           1.5535   -1.5121    8.6188 H       1  UNL1        0.0236
      6 H           0.5344   -1.3890    7.1793 H       1  UNL1        0.0236
      7 H          -0.0867   -2.1658    8.6419 H       1  UNL1        0.0236
      8 C           0.9072    1.1430    8.2663 C.3     1  UNL1       -0.0582
      9 H           0.5327    2.1014    8.6187 H       1  UNL1        0.0236
     10 H           0.9356    1.1573    7.1792 H       1  UNL1        0.0236
     11 H           1.9189    1.0078    8.6418 H       1  UNL1        0.0236
     12 C          -1.4436    0.2142    8.2664 C.3     1  UNL1       -0.0582
     13 H          -2.0863   -0.5893    8.6188 H       1  UNL1        0.0236
     14 H          -1.4702    0.2316    7.1793 H       1  UNL1        0.0236
     15 H          -1.8323    1.1579    8.6418 H       1  UNL1        0.0236
@<TRIPOS>BOND
     1    10     8    1
     2     6     4    1
     3    14    12    1
     4     8     9    1
     5     8    11    1
     6     8     3    1
     7    12    13    1
     8    12    15    1
     9    12     3    1
    10     4     5    1
    11     4     7    1
    12     4     3    1
    13     3     2    1
    14     2     1    1
