@<TRIPOS>MOLECULE
2
 35 37 0 0 0
SMALL
GASTEIGER

@<TRIPOS>ATOM
      1 P           0.6465    7.9264    8.3687 P.3     1  UNL1        0.0527
      2 N           0.5810    6.8598    9.4857 N.3     1  UNL1       -0.1060
      3 C          -0.9770    8.7144    8.0259 C.ar    1  UNL1       -0.0032
      4 C          -2.0839    8.0787    8.5708 C.ar    1  UNL1       -0.0526
      5 C          -3.3491    8.6077    8.3966 C.ar    1  UNL1       -0.0611
      6 C          -3.5086    9.7844    7.6818 C.ar    1  UNL1       -0.0617
      7 C          -2.4028   10.4354    7.1586 C.ar    1  UNL1       -0.0611
      8 C          -1.1357    9.9074    7.3332 C.ar    1  UNL1       -0.0526
      9 C           1.6650    9.4029    8.7583 C.ar    1  UNL1       -0.0032
     10 C           1.2182   10.1656    9.8324 C.ar    1  UNL1       -0.0526
     11 C           1.9470   11.2557   10.2665 C.ar    1  UNL1       -0.0611
     12 C           3.1341   11.5858    9.6303 C.ar    1  UNL1       -0.0617
     13 C           3.5840   10.8272    8.5631 C.ar    1  UNL1       -0.0611
     14 C           2.8535    9.7351    8.1256 C.ar    1  UNL1       -0.0526
     15 C           1.2988    7.3115    6.7672 C.ar    1  UNL1       -0.0032
     16 C           1.8087    6.0191    6.7936 C.ar    1  UNL1       -0.0526
     17 C           2.3374    5.4596    5.6453 C.ar    1  UNL1       -0.0611
     18 C           2.3512    6.1889    4.4662 C.ar    1  UNL1       -0.0617
     19 C           1.8348    7.4741    4.4373 C.ar    1  UNL1       -0.0611
     20 C           1.3085    8.0399    5.5859 C.ar    1  UNL1       -0.0526
     21 H          -1.9129    7.1654    9.1327 H       1  UNL1        0.0624
     22 H          -4.2098    8.1078    8.8166 H       1  UNL1        0.0618
     23 H          -4.4948   10.2018    7.5403 H       1  UNL1        0.0618
     24 H          -2.5290   11.3617    6.6166 H       1  UNL1        0.0618
     25 H          -0.2721   10.4312    6.9473 H       1  UNL1        0.0624
     26 H           0.2891    9.8857   10.3164 H       1  UNL1        0.0624
     27 H           1.5964   11.8478   11.0993 H       1  UNL1        0.0618
     28 H           3.7090   12.4354    9.9687 H       1  UNL1        0.0618
     29 H           4.5097   11.0859    8.0694 H       1  UNL1        0.0618
     30 H           3.2038    9.1474    7.2887 H       1  UNL1        0.0624
     31 H           1.7644    5.4776    7.7357 H       1  UNL1        0.0624
     32 H           2.7366    4.4562    5.6656 H       1  UNL1        0.0618
     33 H           2.7618    5.7548    3.5663 H       1  UNL1        0.0618
     34 H           1.8423    8.0383    3.5158 H       1  UNL1        0.0618
     35 H           0.9070    9.0420    5.5599 H       1  UNL1        0.0624
@<TRIPOS>BOND
     1    34    19    1
     2    33    18    1
     3    19    18   ar
     4    19    20   ar
     5    18    17   ar
     6    35    20    1
     7    20    15   ar
     8    17    32    1
     9    17    16   ar
    10    24     7    1
    11    15    16   ar
    12    15     1    1
    13    16    31    1
    14    25     8    1
    15     7     8   ar
    16     7     6   ar
    17    30    14    1
    18     8     3   ar
    19    23     6    1
    20     6     5   ar
    21     3     1    1
    22     3     4   ar
    23    29    13    1
    24    14    13   ar
    25    14     9   ar
    26     1     9    1
    27     1     2    1
    28     5     4   ar
    29     5    22    1
    30    13    12   ar
    31     4    21    1
    32     9    10   ar
    33    12    28    1
    34    12    11   ar
    35    10    11   ar
    36    10    26    1
    37    11    27    1
