@<TRIPOS>MOLECULE
1
 15 14 0 0 0
SMALL
GASTEIGER

@<TRIPOS>ATOM
      1 N           4.0621    8.8366    4.0659 N.3     1  UNL1        0.0416
      2 O           4.4681    8.8209    2.7795 O.3     1  UNL1       -0.2566
      3 C           5.8500    9.2436    2.5650 C.3     1  UNL1        0.0860
      4 C           5.9626    9.4519    1.0572 C.3     1  UNL1       -0.0343
      5 C           6.1341   10.5354    3.3317 C.3     1  UNL1       -0.0343
      6 C           6.7839    8.1272    3.0377 C.3     1  UNL1       -0.0343
      7 H           5.7014    8.5334    0.5388 H       1  UNL1        0.0258
      8 H           6.9780    9.7343    0.7926 H       1  UNL1        0.0258
      9 H           5.2792   10.2352    0.7388 H       1  UNL1        0.0258
     10 H           5.8254   10.4026    4.3699 H       1  UNL1        0.0258
     11 H           7.1941   10.7711    3.2979 H       1  UNL1        0.0258
     12 H           5.5718   11.3628    2.9046 H       1  UNL1        0.0258
     13 H           6.6295    7.9524    4.0999 H       1  UNL1        0.0258
     14 H           7.8221    8.3991    2.8649 H       1  UNL1        0.0258
     15 H           6.5625    7.2074    2.5025 H       1  UNL1        0.0258
@<TRIPOS>BOND
     1     7     4    1
     2     9     4    1
     3     8     4    1
     4     4     3    1
     5    15     6    1
     6     3     2    1
     7     3     6    1
     8     3     5    1
     9     2     1    1
    10    14     6    1
    11    12     5    1
    12     6    13    1
    13    11     5    1
    14     5    10    1
