@<TRIPOS>MOLECULE
1
 12 12 0 0 0
SMALL
GASTEIGER

@<TRIPOS>ATOM
      1 N           8.1057    0.2371    5.8747 N.pl3   1  UNL1       -0.1294
      2 C           6.9883    0.1075    6.6113 C.ar    1  UNL1        0.0724
      3 C           6.1577   -1.0127    6.4194 C.ar    1  UNL1       -0.0372
      4 C           5.0090   -1.1683    7.1630 C.ar    1  UNL1       -0.0599
      5 C           4.6503   -0.2230    8.1140 C.ar    1  UNL1       -0.0616
      6 C           5.4589    0.8847    8.3143 C.ar    1  UNL1       -0.0599
      7 C           6.6125    1.0549    7.5777 C.ar    1  UNL1       -0.0372
      8 H           6.4592   -1.7374    5.6712 H       1  UNL1        0.0637
      9 H           4.3817   -2.0344    7.0040 H       1  UNL1        0.0618
     10 H           3.7482   -0.3500    8.6936 H       1  UNL1        0.0618
     11 H           5.1848    1.6236    9.0543 H       1  UNL1        0.0618
     12 H           7.2499    1.9169    7.7285 H       1  UNL1        0.0637
@<TRIPOS>BOND
     1     8     3    1
     2     1     2    1
     3     3     2   ar
     4     3     4   ar
     5     2     7   ar
     6     9     4    1
     7     4     5   ar
     8     7    12    1
     9     7     6   ar
    10     5     6   ar
    11     5    10    1
    12     6    11    1
