@<TRIPOS>MOLECULE
1
 12 12 0 0 0
SMALL
GASTEIGER

@<TRIPOS>ATOM
      1 N          13.8682    9.2177    5.4262 N.pl3   1  UNL1       -0.1294
      2 C          14.0733    9.5033    4.1262 C.ar    1  UNL1        0.0724
      3 C          14.8063   10.6302    3.7206 C.ar    1  UNL1       -0.0372
      4 H          15.2145   11.2802    4.4835 H       1  UNL1        0.0637
      5 C          14.9978   10.8977    2.3810 C.ar    1  UNL1       -0.0599
      6 H          15.5645   11.7700    2.0865 H       1  UNL1        0.0618
      7 C          14.4703   10.0591    1.4118 C.ar    1  UNL1       -0.0616
      8 H          14.6233   10.2740    0.3648 H       1  UNL1        0.0618
      9 C          13.7438    8.9412    1.7966 C.ar    1  UNL1       -0.0599
     10 H          13.3305    8.2843    1.0441 H       1  UNL1        0.0618
     11 C          13.5448    8.6618    3.1309 C.ar    1  UNL1       -0.0372
     12 H          12.9803    7.7942    3.4545 H       1  UNL1        0.0637
@<TRIPOS>BOND
     1     8     7    1
     2    10     9    1
     3     7     9   ar
     4     7     5   ar
     5     9    11   ar
     6     6     5    1
     7     5     3   ar
     8    11    12    1
     9    11     2   ar
    10     3     2   ar
    11     3     4    1
    12     2     1    1
