@<TRIPOS>MOLECULE
1
 12 12 0 0 0
SMALL
GASTEIGER

@<TRIPOS>ATOM
      1 N          10.4108    9.9382   11.7124 N.pl3   1  UNL1       -0.1294
      2 C           9.7982    9.4094   10.6485 C.ar    1  UNL1        0.0724
      3 C           8.8879    8.3440   10.7352 C.ar    1  UNL1       -0.0372
      4 H           8.6604    7.9294   11.7083 H       1  UNL1        0.0637
      5 C           8.2917    7.8388    9.5977 C.ar    1  UNL1       -0.0599
      6 H           7.5920    7.0189    9.6807 H       1  UNL1        0.0618
      7 C           8.5836    8.3725    8.3531 C.ar    1  UNL1       -0.0616
      8 H           8.1142    7.9712    7.4673 H       1  UNL1        0.0618
      9 C           9.4821    9.4268    8.2510 C.ar    1  UNL1       -0.0599
     10 H           9.7098    9.8445    7.2802 H       1  UNL1        0.0618
     11 C          10.0828    9.9442    9.3761 C.ar    1  UNL1       -0.0372
     12 H          10.7871   10.7667    9.3313 H       1  UNL1        0.0637
@<TRIPOS>BOND
     1    10     9    1
     2     8     7    1
     3     9     7   ar
     4     9    11   ar
     5     7     5   ar
     6    12    11    1
     7    11     2   ar
     8     5     6    1
     9     5     3   ar
    10     2     3   ar
    11     2     1    1
    12     3     4    1
