@<TRIPOS>MOLECULE
1
 16 15 0 0 0
SMALL
GASTEIGER

@<TRIPOS>ATOM
      1 N           8.5651    5.3807   24.4563 N.3     1  UNL1       -0.1105
      2 N          10.0933    7.1983   24.1157 N.3     1  UNL1       -0.2038
      3 C           9.4184    6.2096   24.3223 C.3     1  UNL1        0.1981
      4 C          11.4999    7.4505   24.0060 C.3     1  UNL1        0.0305
      5 C          11.7419    8.1476   22.6615 C.3     1  UNL1       -0.0457
      6 C          11.9050    8.3795   25.1568 C.3     1  UNL1       -0.0457
      7 C          12.2986    6.1439   24.0780 C.3     1  UNL1       -0.0457
      8 H          12.7937    8.3986   22.5498 H       1  UNL1        0.0248
      9 H          11.1525    9.0591   22.6052 H       1  UNL1        0.0248
     10 H          11.4455    7.4950   21.8435 H       1  UNL1        0.0248
     11 H          12.9560    8.6455   25.0749 H       1  UNL1        0.0248
     12 H          11.7387    7.8823   26.1096 H       1  UNL1        0.0248
     13 H          11.3072    9.2872   25.1292 H       1  UNL1        0.0248
     14 H          13.3646    6.3461   24.0028 H       1  UNL1        0.0248
     15 H          12.1008    5.6375   25.0218 H       1  UNL1        0.0248
     16 H          12.0066    5.4813   23.2651 H       1  UNL1        0.0248
@<TRIPOS>BOND
     1    10     5    1
     2     8     5    1
     3     9     5    1
     4     5     4    1
     5    16     7    1
     6    14     7    1
     7     4     7    1
     8     4     2    1
     9     4     6    1
    10     7    15    1
    11     2     3    1
    12     3     1    1
    13    11     6    1
    14    13     6    1
    15     6    12    1
