@<TRIPOS>MOLECULE
1
 37 39 0 0 0
SMALL
GASTEIGER

@<TRIPOS>ATOM
      1 N          12.1664   11.7561    3.4537 N.pl3   1  UNL1        0.2186
      2 N          12.5494   13.8835    2.7007 N.2     1  UNL1        0.0613
      3 N          13.1991   14.7142    1.8055 N.pl3   1  UNL1       -0.1004
      4 C          12.7680   12.5984    2.6713 C.2     1  UNL1        0.4408
      5 C          13.7399   11.9126    1.7303 C.ar    1  UNL1        0.1460
      6 C          15.0941   12.2135    1.6174 C.ar    1  UNL1        0.1414
      7 C          15.9458   11.5070    0.7878 C.ar    1  UNL1       -0.0254
      8 C          15.4473   10.4573    0.0374 C.ar    1  UNL1       -0.0563
      9 C          14.1150   10.0936    0.1507 C.ar    1  UNL1       -0.0254
     10 C          13.3034   10.8099    1.0064 C.ar    1  UNL1        0.1414
     11 C          13.6354   15.9197    2.3256 C.ar    1  UNL1        0.0796
     12 C          13.7966   17.0542    1.5248 C.ar    1  UNL1       -0.0366
     13 C          14.2191   18.2431    2.0838 C.ar    1  UNL1       -0.0599
     14 C          14.4724   18.3364    3.4432 C.ar    1  UNL1       -0.0616
     15 C          14.2860   17.2216    4.2455 C.ar    1  UNL1       -0.0599
     16 C          13.8738   16.0244    3.6997 C.ar    1  UNL1       -0.0366
     17 C          13.3063   14.3700    0.4650 C.ar    1  UNL1        0.0796
     18 C          14.4448   14.6960   -0.2796 C.ar    1  UNL1       -0.0366
     19 C          14.5515   14.2949   -1.5954 C.ar    1  UNL1       -0.0599
     20 C          13.5391   13.5633   -2.1964 C.ar    1  UNL1       -0.0616
     21 C          12.4070   13.2394   -1.4644 C.ar    1  UNL1       -0.0599
     22 C          12.2857   13.6356   -0.1494 C.ar    1  UNL1       -0.0366
     23 F          15.6095   13.2206    2.3457 F       1  UNL1       -0.2045
     24 F          12.0013   10.4135    1.1559 F       1  UNL1       -0.2045
     25 H          16.9829   11.7965    0.7296 H       1  UNL1        0.0646
     26 H          16.0983    9.9165   -0.6308 H       1  UNL1        0.0619
     27 H          13.7074    9.2711   -0.4154 H       1  UNL1        0.0646
     28 H          13.5732   17.0051    0.4692 H       1  UNL1        0.0637
     29 H          14.3411   19.1118    1.4518 H       1  UNL1        0.0618
     30 H          14.8028   19.2709    3.8722 H       1  UNL1        0.0618
     31 H          14.4708   17.2862    5.3085 H       1  UNL1        0.0618
     32 H          13.7224   15.1533    4.3171 H       1  UNL1        0.0637
     33 H          15.2476   15.2429    0.1919 H       1  UNL1        0.0637
     34 H          15.4404   14.5464   -2.1568 H       1  UNL1        0.0618
     35 H          13.6314   13.2500   -3.2256 H       1  UNL1        0.0618
     36 H          11.6067   12.6798   -1.9272 H       1  UNL1        0.0618
     37 H          11.4042   13.3854    0.4240 H       1  UNL1        0.0637
@<TRIPOS>BOND
     1    35    20    1
     2    20    19   ar
     3    20    21   ar
     4    34    19    1
     5    36    21    1
     6    19    18   ar
     7    21    22   ar
     8    26     8    1
     9    27     9    1
    10    18    33    1
    11    18    17   ar
    12    22    37    1
    13    22    17   ar
    14     8     9   ar
    15     8     7   ar
    16     9    10   ar
    17    17     3    1
    18    28    12    1
    19    25     7    1
    20     7     6   ar
    21    10    24    1
    22    10     5   ar
    23    29    13    1
    24    12    13   ar
    25    12    11   ar
    26     6     5   ar
    27     6    23    1
    28     5     4    1
    29     3    11    1
    30     3     2    1
    31    13    14   ar
    32    11    16   ar
    33     4     2    2
    34     4     1    1
    35    14    30    1
    36    14    15   ar
    37    16    15   ar
    38    16    32    1
    39    15    31    1
