@<TRIPOS>MOLECULE
1
 14 13 0 0 0
SMALL
GASTEIGER

@<TRIPOS>ATOM
      1 N          12.7418    8.4761    1.6988 N.3     1  UNL1       -0.1371
      2 C          13.1325    8.6756    0.3655 C.3     1  UNL1        0.0466
      3 C          12.7381    7.4206   -0.4339 C.3     1  UNL1       -0.0443
      4 C          12.3741    9.9079   -0.1610 C.3     1  UNL1       -0.0443
      5 C          14.6516    8.9057    0.3043 C.3     1  UNL1       -0.0443
      6 H          11.6681    7.2520   -0.3212 H       1  UNL1        0.0248
      7 H          13.2670    6.5573   -0.0350 H       1  UNL1        0.0248
      8 H          12.9802    7.5428   -1.4856 H       1  UNL1        0.0248
      9 H          11.3036    9.7340   -0.0594 H       1  UNL1        0.0248
     10 H          12.6176   10.0933   -1.2030 H       1  UNL1        0.0248
     11 H          12.6401   10.7773    0.4374 H       1  UNL1        0.0248
     12 H          14.9083    9.7780    0.9015 H       1  UNL1        0.0248
     13 H          14.9716    9.0642   -0.7214 H       1  UNL1        0.0248
     14 H          15.1652    8.0380    0.7126 H       1  UNL1        0.0248
@<TRIPOS>BOND
     1     8     3    1
     2    10     4    1
     3    13     5    1
     4     3     6    1
     5     3     7    1
     6     3     2    1
     7     4     9    1
     8     4     2    1
     9     4    11    1
    10     5     2    1
    11     5    14    1
    12     5    12    1
    13     2     1    1
