@<TRIPOS>MOLECULE
1
 26 28 0 0 0
SMALL
GASTEIGER

@<TRIPOS>ATOM
      1 N           2.1443   11.9834   14.5194 N.3     1  UNL1       -0.1362
      2 C           0.8928   11.8527   15.1212 C.3     1  UNL1        0.0557
      3 C           0.9395   12.4421   16.5488 C.3     1  UNL1       -0.0288
      4 C          -0.1721   12.6258   14.3155 C.3     1  UNL1       -0.0288
      5 C           0.4675   10.3731   15.2128 C.3     1  UNL1       -0.0288
      6 C          -0.4261   12.3128   17.2185 C.3     1  UNL1       -0.0388
      7 C          -1.4644   13.0843   16.4050 C.3     1  UNL1       -0.0472
      8 C          -1.5345   12.5029   14.9937 C.3     1  UNL1       -0.0388
      9 C          -1.9367   11.0302   15.0668 C.3     1  UNL1       -0.0472
     10 C          -0.8994   10.2610   15.8839 C.3     1  UNL1       -0.0388
     11 C          -0.8288   10.8409   17.2959 C.3     1  UNL1       -0.0472
     12 H           1.2322   13.4915   16.4851 H       1  UNL1        0.0287
     13 H           1.7046   11.9080   17.1194 H       1  UNL1        0.0287
     14 H          -0.2122   12.2145   13.3046 H       1  UNL1        0.0287
     15 H           0.1378   13.6724   14.2497 H       1  UNL1        0.0287
     16 H           1.2234    9.8308   15.7835 H       1  UNL1        0.0287
     17 H           0.4410    9.9528   14.2079 H       1  UNL1        0.0287
     18 H          -0.3732   12.7308   18.2305 H       1  UNL1        0.0302
     19 H          -2.4428   13.0125   16.8854 H       1  UNL1        0.0271
     20 H          -1.1891   14.1399   16.3591 H       1  UNL1        0.0271
     21 H          -2.2790   13.0552   14.4085 H       1  UNL1        0.0302
     22 H          -2.9207   10.9371   15.5320 H       1  UNL1        0.0271
     23 H          -1.9989   10.6119   14.0602 H       1  UNL1        0.0271
     24 H          -1.1889    9.2053   15.9376 H       1  UNL1        0.0302
     25 H          -1.8004   10.7473   17.7864 H       1  UNL1        0.0271
     26 H          -0.0990   10.2856   17.8895 H       1  UNL1        0.0271
@<TRIPOS>BOND
     1    14     4    1
     2    23     9    1
     3    17     5    1
     4    15     4    1
     5     4     8    1
     6     4     2    1
     7    21     8    1
     8     1     2    1
     9     8     9    1
    10     8     7    1
    11     9    22    1
    12     9    10    1
    13     2     5    1
    14     2     3    1
    15     5    16    1
    16     5    10    1
    17    10    24    1
    18    10    11    1
    19    20     7    1
    20     7    19    1
    21     7     6    1
    22    12     3    1
    23     3    13    1
    24     3     6    1
    25     6    11    1
    26     6    18    1
    27    11    25    1
    28    11    26    1
