@<TRIPOS>MOLECULE
1
 30 30 0 0 0
SMALL
GASTEIGER

@<TRIPOS>ATOM
      1 N          -1.8676    3.2818    4.6390 N.pl3   1  UNL1       -0.1288
      2 C          -1.8009    4.5615    4.2648 C.ar    1  UNL1        0.0792
      3 C          -2.6698    5.5349    4.8225 C.ar    1  UNL1       -0.0200
      4 C          -2.5827    6.8509    4.4118 C.ar    1  UNL1       -0.0564
      5 C          -1.6672    7.2450    3.4522 C.ar    1  UNL1       -0.0611
      6 C          -0.8254    6.3008    2.8899 C.ar    1  UNL1       -0.0564
      7 C          -0.8667    4.9747    3.2750 C.ar    1  UNL1       -0.0200
      8 C           0.0397    3.9568    2.6247 C.3     1  UNL1       -0.0196
      9 C           1.5044    4.4012    2.6298 C.3     1  UNL1       -0.0586
     10 C          -0.4335    3.6601    1.1988 C.3     1  UNL1       -0.0586
     11 C          -3.6856    5.1164    5.8605 C.3     1  UNL1       -0.0196
     12 C          -3.3908    5.7776    7.2099 C.3     1  UNL1       -0.0586
     13 C          -5.1113    5.4302    5.4046 C.3     1  UNL1       -0.0586
     14 H          -3.2442    7.5885    4.8439 H       1  UNL1        0.0621
     15 H          -1.6148    8.2773    3.1388 H       1  UNL1        0.0618
     16 H          -0.1248    6.6109    2.1276 H       1  UNL1        0.0621
     17 H          -0.0467    3.0159    3.1986 H       1  UNL1        0.0344
     18 H           1.8131    4.6970    3.6311 H       1  UNL1        0.0235
     19 H           1.6559    5.2473    1.9639 H       1  UNL1        0.0235
     20 H           2.1462    3.5888    2.2931 H       1  UNL1        0.0235
     21 H          -0.4869    4.5768    0.6148 H       1  UNL1        0.0235
     22 H          -1.4196    3.2006    1.2272 H       1  UNL1        0.0235
     23 H           0.2518    2.9740    0.7046 H       1  UNL1        0.0235
     24 H          -3.6061    4.0271    5.9724 H       1  UNL1        0.0344
     25 H          -2.3686    5.5687    7.5213 H       1  UNL1        0.0235
     26 H          -4.0736    5.4094    7.9745 H       1  UNL1        0.0235
     27 H          -3.5083    6.8566    7.1401 H       1  UNL1        0.0235
     28 H          -5.8311    5.0637    6.1347 H       1  UNL1        0.0235
     29 H          -5.3084    4.9479    4.4506 H       1  UNL1        0.0235
     30 H          -5.2581    6.5013    5.2872 H       1  UNL1        0.0235
@<TRIPOS>BOND
     1    21    10    1
     2    23    10    1
     3    10    22    1
     4    10     8    1
     5    19     9    1
     6    16     6    1
     7    20     9    1
     8     8     9    1
     9     8    17    1
    10     8     7    1
    11     9    18    1
    12     6     7   ar
    13     6     5   ar
    14    15     5    1
    15     7     2   ar
    16     5     4   ar
    17     2     1    1
    18     2     3   ar
    19     4     3   ar
    20     4    14    1
    21    29    13    1
    22     3    11    1
    23    30    13    1
    24    13    11    1
    25    13    28    1
    26    11    24    1
    27    11    12    1
    28    27    12    1
    29    12    25    1
    30    12    26    1
