@<TRIPOS>MOLECULE
1
 30 30 0 0 0
SMALL
GASTEIGER

@<TRIPOS>ATOM
      1 N          -2.4836    1.0536    3.0708 N.pl3   1  UNL1       -0.1288
      2 C          -2.9274    0.8091    1.8367 C.ar    1  UNL1        0.0792
      3 C          -2.3519   -0.2384    1.0693 C.ar    1  UNL1       -0.0200
      4 C          -2.8040   -0.4665   -0.2159 C.ar    1  UNL1       -0.0564
      5 C          -3.8303    0.2913   -0.7554 C.ar    1  UNL1       -0.0611
      6 C          -4.4077    1.3034   -0.0077 C.ar    1  UNL1       -0.0564
      7 C          -3.9705    1.5889    1.2718 C.ar    1  UNL1       -0.0200
      8 C          -4.5985    2.6940    2.0876 C.3     1  UNL1       -0.0196
      9 C          -6.0229    2.3010    2.4904 C.3     1  UNL1       -0.0586
     10 C          -4.5941    4.0282    1.3390 C.3     1  UNL1       -0.0586
     11 C          -1.2342   -1.0372    1.6957 C.3     1  UNL1       -0.0196
     12 C           0.0962   -0.3069    1.4815 C.3     1  UNL1       -0.0586
     13 C          -1.1502   -2.4736    1.1832 C.3     1  UNL1       -0.0586
     14 H          -2.3628   -1.2509   -0.8122 H       1  UNL1        0.0621
     15 H          -4.1789    0.0921   -1.7584 H       1  UNL1        0.0618
     16 H          -5.2090    1.8850   -0.4402 H       1  UNL1        0.0621
     17 H          -3.9954    2.8141    3.0016 H       1  UNL1        0.0344
     18 H          -6.0087    1.3659    3.0461 H       1  UNL1        0.0235
     19 H          -6.6475    2.1693    1.6090 H       1  UNL1        0.0235
     20 H          -6.4690    3.0717    3.1161 H       1  UNL1        0.0235
     21 H          -4.9674    4.8202    1.9846 H       1  UNL1        0.0235
     22 H          -5.2221    3.9859    0.4520 H       1  UNL1        0.0235
     23 H          -3.5830    4.2896    1.0382 H       1  UNL1        0.0235
     24 H          -1.4231   -1.0613    2.7796 H       1  UNL1        0.0344
     25 H           0.0564    0.6675    1.9691 H       1  UNL1        0.0235
     26 H           0.2846   -0.1643    0.4185 H       1  UNL1        0.0235
     27 H           0.9176   -0.8819    1.9070 H       1  UNL1        0.0235
     28 H          -0.4588   -3.0473    1.7981 H       1  UNL1        0.0235
     29 H          -0.7884   -2.5042    0.1578 H       1  UNL1        0.0235
     30 H          -2.1257   -2.9528    1.2241 H       1  UNL1        0.0235
@<TRIPOS>BOND
     1    15     5    1
     2    14     4    1
     3     5     4   ar
     4     5     6   ar
     5    16     6    1
     6     4     3   ar
     7     6     7   ar
     8    29    13    1
     9    26    12    1
    10    22    10    1
    11    23    10    1
    12     3    11    1
    13     3     2   ar
    14    13    30    1
    15    13    11    1
    16    13    28    1
    17     7     2   ar
    18     7     8    1
    19    10    21    1
    20    10     8    1
    21    12    11    1
    22    12    27    1
    23    12    25    1
    24    19     9    1
    25    11    24    1
    26     2     1    1
    27     8     9    1
    28     8    17    1
    29     9    18    1
    30     9    20    1
