@<TRIPOS>MOLECULE
1
 93 93 0 0 0
SMALL
GASTEIGER

@<TRIPOS>ATOM
      1 N           0.5009    8.8767    7.4779 N.pl3   1  UNL1        0.0000
      2 C           1.2425    9.0866    6.3908 C.ar    1  UNL1        0.0000
      3 C           2.4365    9.8620    6.4373 C.ar    1  UNL1        0.0000
      4 C           3.1329   10.1077    5.2692 C.ar    1  UNL1        0.0000
      5 H           4.0300   10.7038    5.3184 H       1  UNL1        0.0000
      6 C           2.7091    9.6290    4.0338 C.ar    1  UNL1        0.0000
      7 C           1.5711    8.8343    4.0027 C.ar    1  UNL1        0.0000
      8 H           1.2192    8.4482    3.0580 H       1  UNL1        0.0000
      9 C           0.8598    8.5284    5.1435 C.ar    1  UNL1        0.0000
     10 C           2.9180   10.3790    7.7612 C.3     1  UNL1        0.0000
     11 H           2.2557    9.9243    8.5256 H       1  UNL1        0.0000
     12 C           3.4407    9.9420    2.7631 C.3     1  UNL1        0.0000
     13 H           2.8311    9.5359    1.9479 H       1  UNL1        0.0000
     14 C          -0.3569    7.6551    5.1075 C.3     1  UNL1        0.0000
     15 H          -0.6016    7.4714    6.1659 H       1  UNL1        0.0000
     16 SI          4.6801    9.7709    8.1843 Si      1  UNL1        0.0000
     17 SI          2.5524   12.2609    7.9172 Si      1  UNL1        0.0000
     18 SI          5.0743    8.9351    2.6715 Si      1  UNL1        0.0000
     19 SI          3.4996   11.8329    2.4288 Si      1  UNL1        0.0000
     20 SI          0.0338    5.9406    4.3580 Si      1  UNL1        0.0000
     21 SI         -1.8565    8.6811    4.4883 Si      1  UNL1        0.0000
     22 C           6.0831   10.9175    7.5723 C.3     1  UNL1        0.0000
     23 H           7.0530   10.4659    7.7605 H       1  UNL1        0.0000
     24 H           6.0607   11.8698    8.0926 H       1  UNL1        0.0000
     25 H           6.0221   11.1214    6.5096 H       1  UNL1        0.0000
     26 C           4.9371    8.0226    7.4489 C.3     1  UNL1        0.0000
     27 H           4.5526    7.9683    6.4354 H       1  UNL1        0.0000
     28 H           4.4114    7.2741    8.0345 H       1  UNL1        0.0000
     29 H           5.9863    7.7432    7.4235 H       1  UNL1        0.0000
     30 C           4.8569    9.6668   10.0906 C.3     1  UNL1        0.0000
     31 H           5.0396    8.6486   10.4210 H       1  UNL1        0.0000
     32 H           3.9559   10.0168   10.5837 H       1  UNL1        0.0000
     33 H           5.6814   10.2748   10.4481 H       1  UNL1        0.0000
     34 C           3.4726   13.3651    6.6618 C.3     1  UNL1        0.0000
     35 H           3.2551   13.0802    5.6397 H       1  UNL1        0.0000
     36 H           4.5466   13.3241    6.8003 H       1  UNL1        0.0000
     37 H           3.1696   14.4004    6.7849 H       1  UNL1        0.0000
     38 C           0.6771   12.4336    7.6128 C.3     1  UNL1        0.0000
     39 H           0.1960   11.4878    7.8860 H       1  UNL1        0.0000
     40 H           0.4516   12.6391    6.5701 H       1  UNL1        0.0000
     41 H           0.2366   13.2280    8.2087 H       1  UNL1        0.0000
     42 C           3.0165   12.8634    9.6692 C.3     1  UNL1        0.0000
     43 H           2.8224   13.9262    9.7774 H       1  UNL1        0.0000
     44 H           4.0662   12.6972    9.8890 H       1  UNL1        0.0000
     45 H           2.4327   12.3468   10.4241 H       1  UNL1        0.0000
     46 C           6.3837    9.3714    3.9863 C.3     1  UNL1        0.0000
     47 H           6.0239    9.1676    4.9882 H       1  UNL1        0.0000
     48 H           6.6713   10.4157    3.9407 H       1  UNL1        0.0000
     49 H           7.2828    8.7807    3.8342 H       1  UNL1        0.0000
     50 C           5.8710    9.1677    0.9501 C.3     1  UNL1        0.0000
     51 H           6.6810    8.4613    0.7985 H       1  UNL1        0.0000
     52 H           6.2838   10.1647    0.8376 H       1  UNL1        0.0000
     53 H           5.1524    9.0171    0.1512 H       1  UNL1        0.0000
     54 C           4.6112    7.0930    2.8901 C.3     1  UNL1        0.0000
     55 H           5.4894    6.4696    3.0281 H       1  UNL1        0.0000
     56 H           4.0745    6.7128    2.0261 H       1  UNL1        0.0000
     57 H           3.9703    6.9594    3.7561 H       1  UNL1        0.0000
     58 C           5.0333   12.7139    3.1477 C.3     1  UNL1        0.0000
     59 H           5.9380   12.3969    2.6383 H       1  UNL1        0.0000
     60 H           5.1627   12.5200    4.2063 H       1  UNL1        0.0000
     61 H           4.9498   13.7895    3.0229 H       1  UNL1        0.0000
     62 C           3.5262   12.1211    0.5385 C.3     1  UNL1        0.0000
     63 H           3.5080   13.1814    0.3063 H       1  UNL1        0.0000
     64 H           2.6669   11.6674    0.0548 H       1  UNL1        0.0000
     65 H           4.4164   11.7026    0.0822 H       1  UNL1        0.0000
     66 C           1.8991   12.6179    3.1164 C.3     1  UNL1        0.0000
     67 H           1.9835   13.6965    3.2094 H       1  UNL1        0.0000
     68 H           1.6563   12.2146    4.0943 H       1  UNL1        0.0000
     69 H           1.0563   12.4125    2.4628 H       1  UNL1        0.0000
     70 C           0.5122    5.8776    2.5086 C.3     1  UNL1        0.0000
     71 H           1.5245    6.2325    2.3467 H       1  UNL1        0.0000
     72 H          -0.1536    6.4748    1.8953 H       1  UNL1        0.0000
     73 H           0.4628    4.8558    2.1419 H       1  UNL1        0.0000
     74 C          -1.4978    4.8129    4.5644 C.3     1  UNL1        0.0000
     75 H          -2.2433    5.0310    3.8071 H       1  UNL1        0.0000
     76 H          -1.9700    4.9423    5.5315 H       1  UNL1        0.0000
     77 H          -1.2313    3.7654    4.4637 H       1  UNL1        0.0000
     78 C           1.5172    5.2222    5.3361 C.3     1  UNL1        0.0000
     79 H           1.9803    4.3911    4.8127 H       1  UNL1        0.0000
     80 H           1.2255    4.8692    6.3199 H       1  UNL1        0.0000
     81 H           2.2756    5.9872    5.4754 H       1  UNL1        0.0000
     82 C          -1.4178   10.5319    4.6158 C.3     1  UNL1        0.0000
     83 H          -2.2925   11.1736    4.5592 H       1  UNL1        0.0000
     84 H          -0.7358   10.8285    3.8253 H       1  UNL1        0.0000
     85 H          -0.9138   10.7160    5.5608 H       1  UNL1        0.0000
     86 C          -2.3669    8.2982    2.6881 C.3     1  UNL1        0.0000
     87 H          -3.2460    8.8714    2.4116 H       1  UNL1        0.0000
     88 H          -2.6036    7.2489    2.5512 H       1  UNL1        0.0000
     89 H          -1.5785    8.5562    1.9890 H       1  UNL1        0.0000
     90 C          -3.3100    8.2794    5.6623 C.3     1  UNL1        0.0000
     91 H          -3.0069    8.4497    6.6940 H       1  UNL1        0.0000
     92 H          -3.6188    7.2426    5.5715 H       1  UNL1        0.0000
     93 H          -4.1788    8.8982    5.4614 H       1  UNL1        0.0000
@<TRIPOS>BOND
     1    64    62    1
     2    65    62    1
     3    53    50    1
     4    63    62    1
     5    62    19    1
     6    51    50    1
     7    52    50    1
     8    50    18    1
     9    72    70    1
    10    13    12    1
    11    89    86    1
    12    56    54    1
    13    73    70    1
    14    71    70    1
    15    87    86    1
    16    19    12    1
    17    19    66    1
    18    19    58    1
    19    69    66    1
    20    70    20    1
    21    88    86    1
    22    59    58    1
    23    18    12    1
    24    18    54    1
    25    18    46    1
    26    86    21    1
    27    12     6    1
    28    54    55    1
    29    54    57    1
    30    61    58    1
    31     8     7    1
    32    66    67    1
    33    66    68    1
    34    58    60    1
    35    75    74    1
    36    84    82    1
    37    49    46    1
    38    48    46    1
    39    46    47    1
    40     7     6   ar
    41     7     9   ar
    42     6     4   ar
    43    20    74    1
    44    20    14    1
    45    20    78    1
    46    77    74    1
    47    21    82    1
    48    21    14    1
    49    21    90    1
    50    83    82    1
    51    74    76    1
    52    82    85    1
    53    79    78    1
    54    14     9    1
    55    14    15    1
    56     9     2   ar
    57     4     5    1
    58     4     3   ar
    59    78    81    1
    60    78    80    1
    61    93    90    1
    62    92    90    1
    63    35    34    1
    64    90    91    1
    65     2     3   ar
    66     2     1    1
    67    27    26    1
    68     3    10    1
    69    25    22    1
    70    40    38    1
    71    34    37    1
    72    34    36    1
    73    34    17    1
    74    29    26    1
    75    26    28    1
    76    26    16    1
    77    22    23    1
    78    22    24    1
    79    22    16    1
    80    38    39    1
    81    38    17    1
    82    38    41    1
    83    10    17    1
    84    10    16    1
    85    10    11    1
    86    17    42    1
    87    16    30    1
    88    42    43    1
    89    42    44    1
    90    42    45    1
    91    30    31    1
    92    30    33    1
    93    30    32    1
