@<TRIPOS>MOLECULE
1
 93 93 0 0 0
SMALL
GASTEIGER

@<TRIPOS>ATOM
      1 N           2.1714   -0.2903   13.6333 N.pl3   1  UNL1        0.0000
      2 C           1.5285    0.3511   12.6517 C.ar    1  UNL1        0.0000
      3 C           2.0263    1.5706   12.1272 C.ar    1  UNL1        0.0000
      4 C           1.3940    2.1653   11.0532 C.ar    1  UNL1        0.0000
      5 H           1.8034    3.0770   10.6480 H       1  UNL1        0.0000
      6 C           0.2514    1.6215   10.4767 C.ar    1  UNL1        0.0000
      7 C          -0.2777    0.4697   11.0448 C.ar    1  UNL1        0.0000
      8 H          -1.1862    0.0477   10.6393 H       1  UNL1        0.0000
      9 C           0.3201   -0.1656   12.1147 C.ar    1  UNL1        0.0000
     10 C           3.2363    2.1713   12.7830 C.3     1  UNL1        0.0000
     11 H           3.3983    1.5602   13.6902 H       1  UNL1        0.0000
     12 C          -0.3873    2.2268    9.2612 C.3     1  UNL1        0.0000
     13 H          -1.2157    1.5649    8.9843 H       1  UNL1        0.0000
     14 C          -0.2708   -1.3957   12.7359 C.3     1  UNL1        0.0000
     15 H           0.2663   -1.5274   13.6900 H       1  UNL1        0.0000
     16 SI          2.8843    3.9364   13.4360 Si      1  UNL1        0.0000
     17 SI          4.7639    1.8416   11.6875 Si      1  UNL1        0.0000
     18 SI         -1.2411    3.8983    9.6718 Si      1  UNL1        0.0000
     19 SI          0.8155    2.1615    7.7650 Si      1  UNL1        0.0000
     20 SI         -2.1043   -1.1848   13.2424 Si      1  UNL1        0.0000
     21 SI          0.2420   -2.9278   11.7186 Si      1  UNL1        0.0000
     22 C           1.0640    4.0196   14.0008 C.3     1  UNL1        0.0000
     23 H           0.9218    3.3928   14.8765 H       1  UNL1        0.0000
     24 H           0.3947    3.6565   13.2272 H       1  UNL1        0.0000
     25 H           0.7588    5.0285   14.2626 H       1  UNL1        0.0000
     26 C           3.9972    4.2486   14.9543 C.3     1  UNL1        0.0000
     27 H           5.0507    4.1713   14.7068 H       1  UNL1        0.0000
     28 H           3.7808    3.5260   15.7332 H       1  UNL1        0.0000
     29 H           3.8294    5.2369   15.3705 H       1  UNL1        0.0000
     30 C           3.2722    5.3258   12.1784 C.3     1  UNL1        0.0000
     31 H           2.9119    6.2830   12.5434 H       1  UNL1        0.0000
     32 H           2.8136    5.1542   11.2117 H       1  UNL1        0.0000
     33 H           4.3427    5.4197   12.0243 H       1  UNL1        0.0000
     34 C           6.3709    2.3208   12.6111 C.3     1  UNL1        0.0000
     35 H           6.3811    1.9531   13.6314 H       1  UNL1        0.0000
     36 H           6.4816    3.3992   12.6507 H       1  UNL1        0.0000
     37 H           7.2479    1.9250   12.1078 H       1  UNL1        0.0000
     38 C           4.7950    2.7351   10.0013 C.3     1  UNL1        0.0000
     39 H           5.7008    2.4872    9.4551 H       1  UNL1        0.0000
     40 H           4.7713    3.8128   10.1175 H       1  UNL1        0.0000
     41 H           3.9516    2.4465    9.3841 H       1  UNL1        0.0000
     42 C           4.7545   -0.0419   11.3414 C.3     1  UNL1        0.0000
     43 H           4.2369   -0.2611   10.4127 H       1  UNL1        0.0000
     44 H           4.2110   -0.5385   12.1465 H       1  UNL1        0.0000
     45 H           5.7524   -0.4648   11.2665 H       1  UNL1        0.0000
     46 C          -0.0962    5.3007   10.2694 C.3     1  UNL1        0.0000
     47 H           0.6999    5.5083    9.5630 H       1  UNL1        0.0000
     48 H           0.3572    5.0602   11.2244 H       1  UNL1        0.0000
     49 H          -0.6624    6.2191   10.3984 H       1  UNL1        0.0000
     50 C          -2.1667    4.5190    8.1181 C.3     1  UNL1        0.0000
     51 H          -2.8042    5.3641    8.3580 H       1  UNL1        0.0000
     52 H          -2.7975    3.7455    7.6922 H       1  UNL1        0.0000
     53 H          -1.4757    4.8414    7.3463 H       1  UNL1        0.0000
     54 C          -2.5157    3.5681   11.0543 C.3     1  UNL1        0.0000
     55 H          -2.0245    3.1745   11.9379 H       1  UNL1        0.0000
     56 H          -3.2614    2.8423   10.7443 H       1  UNL1        0.0000
     57 H          -3.0401    4.4741   11.3432 H       1  UNL1        0.0000
     58 C           1.9657    0.6480    7.9684 C.3     1  UNL1        0.0000
     59 H           2.8079    0.6824    7.2836 H       1  UNL1        0.0000
     60 H           1.4277   -0.2762    7.7795 H       1  UNL1        0.0000
     61 H           2.3549    0.5937    8.9800 H       1  UNL1        0.0000
     62 C           1.8653    3.7397    7.5324 C.3     1  UNL1        0.0000
     63 H           2.5975    3.6027    6.7420 H       1  UNL1        0.0000
     64 H           2.4059    4.0089    8.4328 H       1  UNL1        0.0000
     65 H           1.2418    4.5839    7.2558 H       1  UNL1        0.0000
     66 C          -0.1928    1.9136    6.1592 C.3     1  UNL1        0.0000
     67 H          -0.8690    2.7424    5.9815 H       1  UNL1        0.0000
     68 H          -0.7894    1.0078    6.2006 H       1  UNL1        0.0000
     69 H           0.4606    1.8341    5.2958 H       1  UNL1        0.0000
     70 C          -2.4032   -2.2623   14.7918 C.3     1  UNL1        0.0000
     71 H          -1.5517   -2.2213   15.4642 H       1  UNL1        0.0000
     72 H          -2.5517   -3.3035   14.5260 H       1  UNL1        0.0000
     73 H          -3.2795   -1.9394   15.3458 H       1  UNL1        0.0000
     74 C          -2.4529    0.6506   13.6603 C.3     1  UNL1        0.0000
     75 H          -1.5287    1.2150   13.7338 H       1  UNL1        0.0000
     76 H          -2.9853    0.7568   14.6008 H       1  UNL1        0.0000
     77 H          -3.0581    1.1185   12.8910 H       1  UNL1        0.0000
     78 C          -3.3508   -1.7442   11.9024 C.3     1  UNL1        0.0000
     79 H          -4.3693   -1.6299   12.2611 H       1  UNL1        0.0000
     80 H          -3.2122   -2.7876   11.6383 H       1  UNL1        0.0000
     81 H          -3.2598   -1.1590   10.9935 H       1  UNL1        0.0000
     82 C          -0.3919   -4.5328   12.5392 C.3     1  UNL1        0.0000
     83 H          -1.4715   -4.6119   12.4746 H       1  UNL1        0.0000
     84 H          -0.1237   -4.5526   13.5910 H       1  UNL1        0.0000
     85 H           0.0281   -5.4173   12.0691 H       1  UNL1        0.0000
     86 C          -0.3169   -2.8474    9.8954 C.3     1  UNL1        0.0000
     87 H           0.0261   -1.9310    9.4270 H       1  UNL1        0.0000
     88 H          -1.3968   -2.8784    9.8096 H       1  UNL1        0.0000
     89 H           0.0813   -3.6818    9.3264 H       1  UNL1        0.0000
     90 C           2.1575   -2.9846   11.7352 C.3     1  UNL1        0.0000
     91 H           2.5516   -3.9844   11.5710 H       1  UNL1        0.0000
     92 H           2.5008   -2.6121   12.7099 H       1  UNL1        0.0000
     93 H           2.5674   -2.3313   10.9708 H       1  UNL1        0.0000
@<TRIPOS>BOND
     1    69    66    1
     2    67    66    1
     3    66    68    1
     4    66    19    1
     5    63    62    1
     6    65    62    1
     7    59    58    1
     8    53    50    1
     9    62    19    1
    10    62    64    1
    11    52    50    1
    12    19    58    1
    13    19    12    1
    14    60    58    1
    15    58    61    1
    16    50    51    1
    17    50    18    1
    18    13    12    1
    19    12    18    1
    20    12     6    1
    21    89    86    1
    22    41    38    1
    23    87    86    1
    24    39    38    1
    25    47    46    1
    26    18    46    1
    27    18    54    1
    28    88    86    1
    29    86    21    1
    30    38    40    1
    31    38    17    1
    32    46    49    1
    33    46    48    1
    34    43    42    1
    35     6     7   ar
    36     6     4   ar
    37     8     7    1
    38     5     4    1
    39    56    54    1
    40    93    90    1
    41    81    78    1
    42     7     9   ar
    43     4     3   ar
    44    54    57    1
    45    54    55    1
    46    32    30    1
    47    45    42    1
    48    42    17    1
    49    42    44    1
    50    91    90    1
    51    80    78    1
    52    17    34    1
    53    17    10    1
    54    21    90    1
    55    21    82    1
    56    21    14    1
    57    90    92    1
    58    78    79    1
    59    78    20    1
    60    33    30    1
    61    85    82    1
    62    37    34    1
    63     9     2   ar
    64     9    14    1
    65     3     2   ar
    66     3    10    1
    67    30    31    1
    68    30    16    1
    69    83    82    1
    70    82    84    1
    71    34    36    1
    72    34    35    1
    73     2     1    1
    74    14    20    1
    75    14    15    1
    76    10    16    1
    77    10    11    1
    78    77    74    1
    79    24    22    1
    80    20    74    1
    81    20    70    1
    82    16    22    1
    83    16    26    1
    84    74    75    1
    85    74    76    1
    86    22    25    1
    87    22    23    1
    88    72    70    1
    89    27    26    1
    90    70    73    1
    91    70    71    1
    92    26    29    1
    93    26    28    1
