@<TRIPOS>MOLECULE
1
 30 30 0 0 0
SMALL
GASTEIGER

@<TRIPOS>ATOM
      1 N          -5.4402    0.9104   -5.0072 N.pl3   1  UNL1       -0.1288
      2 C          -5.1426    1.7614   -6.0054 C.ar    1  UNL1        0.0792
      3 C          -3.8467    2.3424   -6.0769 C.ar    1  UNL1       -0.0200
      4 C          -3.5527    3.2506   -7.0760 C.ar    1  UNL1       -0.0564
      5 H          -2.5756    3.7071   -7.1157 H       1  UNL1        0.0621
      6 C          -4.4932    3.5868   -8.0343 C.ar    1  UNL1       -0.0611
      7 H          -4.2501    4.3020   -8.8059 H       1  UNL1        0.0618
      8 C          -5.7424    2.9946   -7.9995 C.ar    1  UNL1       -0.0564
      9 H          -6.4660    3.2527   -8.7582 H       1  UNL1        0.0621
     10 C          -6.0877    2.0880   -7.0124 C.ar    1  UNL1       -0.0200
     11 C          -7.4629    1.4631   -7.0044 C.3     1  UNL1       -0.0196
     12 H          -7.4859    0.7044   -6.2089 H       1  UNL1        0.0344
     13 C          -7.7708    0.7730   -8.3366 C.3     1  UNL1       -0.0586
     14 H          -6.9814    0.0715   -8.5942 H       1  UNL1        0.0235
     15 H          -7.8628    1.4968   -9.1426 H       1  UNL1        0.0235
     16 H          -8.7082    0.2273   -8.2607 H       1  UNL1        0.0235
     17 C          -8.5225    2.5272   -6.7054 C.3     1  UNL1       -0.0586
     18 H          -8.3152    3.0112   -5.7548 H       1  UNL1        0.0235
     19 H          -9.5084    2.0718   -6.6544 H       1  UNL1        0.0235
     20 H          -8.5327    3.2860   -7.4849 H       1  UNL1        0.0235
     21 C          -2.8307    1.9606   -5.0264 C.3     1  UNL1       -0.0196
     22 H          -3.0747    0.9346   -4.7102 H       1  UNL1        0.0344
     23 C          -2.9782    2.8901   -3.8174 C.3     1  UNL1       -0.0586
     24 H          -3.9959    2.8388   -3.4295 H       1  UNL1        0.0235
     25 H          -2.7739    3.9184   -4.1101 H       1  UNL1        0.0235
     26 H          -2.2799    2.6110   -3.0297 H       1  UNL1        0.0235
     27 C          -1.3901    1.9756   -5.5373 C.3     1  UNL1       -0.0586
     28 H          -1.3114    1.4474   -6.4854 H       1  UNL1        0.0235
     29 H          -0.7350    1.4920   -4.8147 H       1  UNL1        0.0235
     30 H          -1.0330    2.9929   -5.6778 H       1  UNL1        0.0235
@<TRIPOS>BOND
     1    15    13    1
     2     7     6    1
     3     9     8    1
     4    14    13    1
     5    13    16    1
     6    13    11    1
     7     6     8   ar
     8     6     4   ar
     9     8    10   ar
    10    20    17    1
    11     5     4    1
    12     4     3   ar
    13    10    11    1
    14    10     2   ar
    15    11    17    1
    16    11    12    1
    17    17    19    1
    18    17    18    1
    19    28    27    1
    20     3     2   ar
    21     3    21    1
    22     2     1    1
    23    30    27    1
    24    27    21    1
    25    27    29    1
    26    21    22    1
    27    21    23    1
    28    25    23    1
    29    23    24    1
    30    23    26    1
