@<TRIPOS>MOLECULE
1
 18 18 0 0 0
SMALL
GASTEIGER

@<TRIPOS>ATOM
      1 N           9.5804    9.4689   12.6515 N.pl3   1  UNL1       -0.1288
      2 C           9.8942    8.2013   12.9536 C.ar    1  UNL1        0.0782
      3 C          11.1325    7.6322   12.5631 C.ar    1  UNL1       -0.0257
      4 C          11.4085    6.3077   12.8524 C.ar    1  UNL1       -0.0570
      5 H          12.3571    5.8911   12.5420 H       1  UNL1        0.0621
      6 C          10.4982    5.5154   13.5286 C.ar    1  UNL1       -0.0611
      7 H          10.7265    4.4819   13.7427 H       1  UNL1        0.0618
      8 C           9.2936    6.0653   13.9354 C.ar    1  UNL1       -0.0570
      9 H           8.5827    5.4551   14.4754 H       1  UNL1        0.0621
     10 C           8.9791    7.3834   13.6672 C.ar    1  UNL1       -0.0257
     11 C          12.1546    8.4734   11.8565 C.3     1  UNL1       -0.0378
     12 H          11.6813    9.3560   11.4285 H       1  UNL1        0.0278
     13 H          12.9179    8.8009   12.5641 H       1  UNL1        0.0278
     14 H          12.6493    7.9022   11.0727 H       1  UNL1        0.0278
     15 C           7.6898    7.9729   14.1500 C.3     1  UNL1       -0.0378
     16 H           7.2944    8.6582   13.4004 H       1  UNL1        0.0278
     17 H           6.9613    7.1911   14.3526 H       1  UNL1        0.0278
     18 H           7.8635    8.5362   15.0685 H       1  UNL1        0.0278
@<TRIPOS>BOND
     1    14    11    1
     2    12    11    1
     3    11     3    1
     4    11    13    1
     5     5     4    1
     6     3     4   ar
     7     3     2   ar
     8     1     2    1
     9     4     6   ar
    10     2    10   ar
    11    16    15    1
    12     6     7    1
    13     6     8   ar
    14    10     8   ar
    15    10    15    1
    16     8     9    1
    17    15    17    1
    18    15    18    1
