@<TRIPOS>MOLECULE
1
 30 30 0 0 0
SMALL
GASTEIGER

@<TRIPOS>ATOM
      1 N           7.9470   -4.1075    5.4924 N.pl3   1  UNL1       -0.1288
      2 C           8.2489   -4.7263    6.6407 C.ar    1  UNL1        0.0792
      3 C           7.4948   -4.4705    7.8126 C.ar    1  UNL1       -0.0200
      4 C           7.8182   -5.1423    8.9770 C.ar    1  UNL1       -0.0564
      5 C           8.8735   -6.0349    9.0193 C.ar    1  UNL1       -0.0611
      6 C           9.6202   -6.2771    7.8781 C.ar    1  UNL1       -0.0564
      7 C           9.3287   -5.6503    6.6824 C.ar    1  UNL1       -0.0200
      8 C           6.3411   -3.4956    7.7706 C.3     1  UNL1       -0.0196
      9 C           5.0112   -4.2541    7.7491 C.3     1  UNL1       -0.0586
     10 C           6.3722   -2.5160    8.9431 C.3     1  UNL1       -0.0586
     11 C          10.1232   -5.8950    5.4225 C.3     1  UNL1       -0.0196
     12 C          10.8627   -7.2305    5.4085 C.3     1  UNL1       -0.0586
     13 C          11.1092   -4.7404    5.2063 C.3     1  UNL1       -0.0586
     14 H           7.2390   -4.9652    9.8703 H       1  UNL1        0.0621
     15 H           9.1165   -6.5426    9.9408 H       1  UNL1        0.0618
     16 H          10.4431   -6.9720    7.9301 H       1  UNL1        0.0621
     17 H           6.4173   -2.9123    6.8443 H       1  UNL1        0.0344
     18 H           4.9085   -4.8719    8.6391 H       1  UNL1        0.0235
     19 H           4.1819   -3.5506    7.7157 H       1  UNL1        0.0235
     20 H           4.9511   -4.8995    6.8757 H       1  UNL1        0.0235
     21 H           6.1565   -3.0184    9.8831 H       1  UNL1        0.0235
     22 H           7.3466   -2.0402    9.0177 H       1  UNL1        0.0235
     23 H           5.6242   -1.7415    8.7907 H       1  UNL1        0.0235
     24 H           9.4135   -5.8936    4.5801 H       1  UNL1        0.0344
     25 H          10.1928   -8.0489    5.6627 H       1  UNL1        0.0235
     26 H          11.6963   -7.2266    6.1070 H       1  UNL1        0.0235
     27 H          11.2615   -7.4121    4.4130 H       1  UNL1        0.0235
     28 H          11.8035   -4.6771    6.0421 H       1  UNL1        0.0235
     29 H          10.5741   -3.7964    5.1228 H       1  UNL1        0.0235
     30 H          11.6760   -4.8971    4.2913 H       1  UNL1        0.0235
@<TRIPOS>BOND
     1    30    13    1
     2    27    12    1
     3    24    11    1
     4    29    13    1
     5    13    11    1
     6    13    28    1
     7    12    11    1
     8    12    25    1
     9    12    26    1
    10    11     7    1
    11     1     2    1
    12     2     7   ar
    13     2     3   ar
    14     7     6   ar
    15    17     8    1
    16    20     9    1
    17    19     9    1
    18     9     8    1
    19     9    18    1
    20     8     3    1
    21     8    10    1
    22     3     4   ar
    23     6    16    1
    24     6     5   ar
    25    23    10    1
    26    10    22    1
    27    10    21    1
    28     4     5   ar
    29     4    14    1
    30     5    15    1
