@<TRIPOS>MOLECULE
1
 30 30 0 0 0
SMALL
GASTEIGER

@<TRIPOS>ATOM
      1 N           5.9736   -4.5526    3.0664 N.pl3   1  UNL1       -0.1288
      2 C           4.9608   -5.3466    2.7161 C.ar    1  UNL1        0.0792
      3 C           4.1623   -5.0140    1.5871 C.ar    1  UNL1       -0.0200
      4 C           3.1111   -5.8387    1.2375 C.ar    1  UNL1       -0.0564
      5 C           2.8212   -6.9742    1.9743 C.ar    1  UNL1       -0.0611
      6 C           3.5994   -7.3112    3.0699 C.ar    1  UNL1       -0.0564
      7 C           4.6686   -6.5288    3.4601 C.ar    1  UNL1       -0.0200
      8 C           4.5392   -3.8194    0.7503 C.3     1  UNL1       -0.0196
      9 C           5.3810   -4.2954   -0.4386 C.3     1  UNL1       -0.0586
     10 C           3.3317   -3.0168    0.2688 C.3     1  UNL1       -0.0586
     11 C           5.5532   -6.9151    4.6171 C.3     1  UNL1       -0.0196
     12 C           6.7744   -7.6717    4.0798 C.3     1  UNL1       -0.0586
     13 C           4.8476   -7.7354    5.6943 C.3     1  UNL1       -0.0586
     14 H           2.5085   -5.6005    0.3747 H       1  UNL1        0.0621
     15 H           1.9941   -7.6067    1.6876 H       1  UNL1        0.0618
     16 H           3.3669   -8.2096    3.6194 H       1  UNL1        0.0621
     17 H           5.1659   -3.1657    1.3655 H       1  UNL1        0.0344
     18 H           4.8088   -4.9815   -1.0601 H       1  UNL1        0.0235
     19 H           5.6870   -3.4470   -1.0462 H       1  UNL1        0.0235
     20 H           6.2729   -4.8108   -0.0868 H       1  UNL1        0.0235
     21 H           2.7713   -3.5585   -0.4895 H       1  UNL1        0.0235
     22 H           3.6663   -2.0791   -0.1701 H       1  UNL1        0.0235
     23 H           2.6634   -2.7915    1.0972 H       1  UNL1        0.0235
     24 H           5.9218   -5.9903    5.0862 H       1  UNL1        0.0344
     25 H           6.4625   -8.5803    3.5684 H       1  UNL1        0.0235
     26 H           7.3264   -7.0456    3.3790 H       1  UNL1        0.0235
     27 H           7.4364   -7.9377    4.9003 H       1  UNL1        0.0235
     28 H           4.6451   -8.7474    5.3512 H       1  UNL1        0.0235
     29 H           3.9089   -7.2689    5.9863 H       1  UNL1        0.0235
     30 H           5.4864   -7.8018    6.5727 H       1  UNL1        0.0235
@<TRIPOS>BOND
     1    18     9    1
     2    19     9    1
     3    21    10    1
     4     9    20    1
     5     9     8    1
     6    22    10    1
     7    10     8    1
     8    10    23    1
     9    14     4    1
    10     8    17    1
    11     8     3    1
    12     4     3   ar
    13     4     5   ar
    14     3     2   ar
    15    15     5    1
    16     5     6   ar
    17     2     1    1
    18     2     7   ar
    19     6     7   ar
    20     6    16    1
    21    26    12    1
    22     7    11    1
    23    25    12    1
    24    12    11    1
    25    12    27    1
    26    11    24    1
    27    11    13    1
    28    28    13    1
    29    13    29    1
    30    13    30    1
