@<TRIPOS>MOLECULE
1
 93 93 0 0 0
SMALL
GASTEIGER

@<TRIPOS>ATOM
      1 N           6.9162    4.9692    5.6737 N.pl3   1  UNL1        0.0000
      2 C           6.7686    5.7229    6.7657 C.ar    1  UNL1        0.0000
      3 C           7.0299    5.1659    8.0483 C.ar    1  UNL1        0.0000
      4 C           6.8396    5.9134    9.1876 C.ar    1  UNL1        0.0000
      5 H           7.0045    5.4409   10.1454 H       1  UNL1        0.0000
      6 C           6.4345    7.2419    9.1400 C.ar    1  UNL1        0.0000
      7 C           6.2283    7.8082    7.8876 C.ar    1  UNL1        0.0000
      8 H           5.9286    8.8421    7.8285 H       1  UNL1        0.0000
      9 C           6.3819    7.0936    6.7127 C.ar    1  UNL1        0.0000
     10 C           7.4698    3.7335    8.1050 C.3     1  UNL1        0.0000
     11 H           7.5669    3.4403    7.0506 H       1  UNL1        0.0000
     12 C           6.2393    8.0110   10.4154 C.3     1  UNL1        0.0000
     13 H           6.3722    7.2887   11.2293 H       1  UNL1        0.0000
     14 C           6.1614    7.7435    5.3696 C.3     1  UNL1        0.0000
     15 H           6.4939    7.0061    4.6058 H       1  UNL1        0.0000
     16 SI          9.2364    3.6049    8.8200 Si      1  UNL1        0.0000
     17 SI          6.0542    2.6222    8.7559 Si      1  UNL1        0.0000
     18 SI          7.6758    9.2604   10.6679 Si      1  UNL1        0.0000
     19 SI          4.4300    8.6219   10.6126 Si      1  UNL1        0.0000
     20 SI          7.2442    9.3093    5.1489 Si      1  UNL1        0.0000
     21 SI          4.2814    7.9569    5.0462 Si      1  UNL1        0.0000
     22 C          10.3399    4.8111    7.8260 C.3     1  UNL1        0.0000
     23 H           9.9457    5.8197    7.8979 H       1  UNL1        0.0000
     24 H          10.3630    4.5523    6.7727 H       1  UNL1        0.0000
     25 H          11.3630    4.8281    8.1898 H       1  UNL1        0.0000
     26 C           9.8749    1.8165    8.5834 C.3     1  UNL1        0.0000
     27 H          10.9425    1.7526    8.7684 H       1  UNL1        0.0000
     28 H           9.6921    1.4554    7.5774 H       1  UNL1        0.0000
     29 H           9.3855    1.1322    9.2682 H       1  UNL1        0.0000
     30 C           9.4365    4.0442   10.6686 C.3     1  UNL1        0.0000
     31 H           9.2754    5.1028   10.8416 H       1  UNL1        0.0000
     32 H          10.4400    3.8064   11.0106 H       1  UNL1        0.0000
     33 H           8.7409    3.4944   11.2931 H       1  UNL1        0.0000
     34 C           5.9044    1.1581    7.5333 C.3     1  UNL1        0.0000
     35 H           5.0594    0.5169    7.7639 H       1  UNL1        0.0000
     36 H           6.7976    0.5415    7.5516 H       1  UNL1        0.0000
     37 H           5.7781    1.5282    6.5187 H       1  UNL1        0.0000
     38 C           6.3238    1.9277   10.5157 C.3     1  UNL1        0.0000
     39 H           5.5171    1.2554   10.7908 H       1  UNL1        0.0000
     40 H           6.3514    2.7208   11.2554 H       1  UNL1        0.0000
     41 H           7.2525    1.3725   10.5902 H       1  UNL1        0.0000
     42 C           4.4170    3.6046    8.7642 C.3     1  UNL1        0.0000
     43 H           4.3487    4.2192    7.8717 H       1  UNL1        0.0000
     44 H           4.3702    4.2763    9.6149 H       1  UNL1        0.0000
     45 H           3.5450    2.9579    8.8029 H       1  UNL1        0.0000
     46 C           9.3108    8.2838   10.4999 C.3     1  UNL1        0.0000
     47 H           9.2933    7.6586    9.6125 H       1  UNL1        0.0000
     48 H           9.4735    7.6326   11.3533 H       1  UNL1        0.0000
     49 H          10.1702    8.9431   10.4245 H       1  UNL1        0.0000
     50 C           7.5816   10.0009   12.4277 C.3     1  UNL1        0.0000
     51 H           7.4328    9.2333   13.1799 H       1  UNL1        0.0000
     52 H           6.7644   10.7093   12.5145 H       1  UNL1        0.0000
     53 H           8.4970   10.5289   12.6761 H       1  UNL1        0.0000
     54 C           7.7337   10.7151    9.4366 C.3     1  UNL1        0.0000
     55 H           8.5508   11.3868    9.6848 H       1  UNL1        0.0000
     56 H           6.8193   11.2975    9.4542 H       1  UNL1        0.0000
     57 H           7.8911   10.3694    8.4220 H       1  UNL1        0.0000
     58 C           4.0841   10.3427    9.8597 C.3     1  UNL1        0.0000
     59 H           4.4256   10.4212    8.8342 H       1  UNL1        0.0000
     60 H           4.5743   11.1223   10.4344 H       1  UNL1        0.0000
     61 H           3.0193   10.5564    9.8646 H       1  UNL1        0.0000
     62 C           3.2619    7.3173    9.8449 C.3     1  UNL1        0.0000
     63 H           3.1020    6.4908   10.5309 H       1  UNL1        0.0000
     64 H           3.6831    6.9037    8.9343 H       1  UNL1        0.0000
     65 H           2.2877    7.7338    9.6065 H       1  UNL1        0.0000
     66 C           4.0122    8.7433   12.4750 C.3     1  UNL1        0.0000
     67 H           2.9743    9.0249   12.6237 H       1  UNL1        0.0000
     68 H           4.6260    9.4838   12.9757 H       1  UNL1        0.0000
     69 H           4.1676    7.7950   12.9799 H       1  UNL1        0.0000
     70 C           8.9128    9.0729    6.0568 C.3     1  UNL1        0.0000
     71 H           9.4036   10.0251    6.2365 H       1  UNL1        0.0000
     72 H           9.6068    8.4508    5.5012 H       1  UNL1        0.0000
     73 H           8.7529    8.5960    7.0188 H       1  UNL1        0.0000
     74 C           6.4362   10.9236    5.7787 C.3     1  UNL1        0.0000
     75 H           5.5389   11.1582    5.2146 H       1  UNL1        0.0000
     76 H           7.1218   11.7579    5.6603 H       1  UNL1        0.0000
     77 H           6.1635   10.8775    6.8262 H       1  UNL1        0.0000
     78 C           7.5474    9.6193    3.2815 C.3     1  UNL1        0.0000
     79 H           6.8684   10.3750    2.9012 H       1  UNL1        0.0000
     80 H           7.3840    8.7223    2.6949 H       1  UNL1        0.0000
     81 H           8.5556    9.9720    3.0853 H       1  UNL1        0.0000
     82 C           3.9590    8.7358    3.3329 C.3     1  UNL1        0.0000
     83 H           4.3874    8.1366    2.5367 H       1  UNL1        0.0000
     84 H           4.3777    9.7338    3.2591 H       1  UNL1        0.0000
     85 H           2.8931    8.8141    3.1422 H       1  UNL1        0.0000
     86 C           3.5577    6.1917    5.1219 C.3     1  UNL1        0.0000
     87 H           3.4552    5.7811    4.1195 H       1  UNL1        0.0000
     88 H           2.5764    6.1633    5.5878 H       1  UNL1        0.0000
     89 H           4.2241    5.5496    5.7030 H       1  UNL1        0.0000
     90 C           3.3532    9.0056    6.3389 C.3     1  UNL1        0.0000
     91 H           2.2899    9.0172    6.1180 H       1  UNL1        0.0000
     92 H           3.6923   10.0345    6.3394 H       1  UNL1        0.0000
     93 H           3.4776    8.6129    7.3404 H       1  UNL1        0.0000
@<TRIPOS>BOND
     1    83    82    1
     2    80    78    1
     3    79    78    1
     4    81    78    1
     5    85    82    1
     6    84    82    1
     7    78    20    1
     8    82    21    1
     9    87    86    1
    10    15    14    1
    11    21    86    1
    12    21    14    1
    13    21    90    1
    14    86    88    1
    15    86    89    1
    16    20    14    1
    17    20    74    1
    18    20    70    1
    19    75    74    1
    20    14     9    1
    21    72    70    1
    22    76    74    1
    23     1     2    1
    24    74    77    1
    25    70    71    1
    26    70    73    1
    27    91    90    1
    28    90    92    1
    29    90    93    1
    30    37    34    1
    31     9     2   ar
    32     9     7   ar
    33     2     3   ar
    34    24    22    1
    35    11    10    1
    36    34    36    1
    37    34    35    1
    38    34    17    1
    39    28    26    1
    40    22    23    1
    41    22    25    1
    42    22    16    1
    43     8     7    1
    44    43    42    1
    45     7     6   ar
    46     3    10    1
    47     3     4   ar
    48    10    17    1
    49    10    16    1
    50    57    54    1
    51    26    27    1
    52    26    16    1
    53    26    29    1
    54    17    42    1
    55    17    38    1
    56    42    45    1
    57    42    44    1
    58    16    30    1
    59    59    58    1
    60    64    62    1
    61     6     4   ar
    62     6    12    1
    63     4     5    1
    64    54    56    1
    65    54    55    1
    66    54    18    1
    67    65    62    1
    68    47    46    1
    69    62    63    1
    70    62    19    1
    71    58    61    1
    72    58    60    1
    73    58    19    1
    74    12    19    1
    75    12    18    1
    76    12    13    1
    77    49    46    1
    78    46    18    1
    79    46    48    1
    80    38    41    1
    81    38    39    1
    82    38    40    1
    83    19    66    1
    84    18    50    1
    85    30    31    1
    86    30    32    1
    87    30    33    1
    88    50    52    1
    89    50    53    1
    90    50    51    1
    91    66    67    1
    92    66    68    1
    93    66    69    1
