@<TRIPOS>MOLECULE
2
 14 13 0 0 0
SMALL
GASTEIGER

@<TRIPOS>ATOM
      1 SI         10.6542    2.6033    4.5015 Si      1  UNL1        0.0000
      2 N           9.0239    2.6030    3.8827 N.3     1  UNL1        0.0000
      3 C          10.8278    1.0128    5.5484 C.3     1  UNL1        0.0000
      4 C          11.7996    2.6033    2.9703 C.3     1  UNL1        0.0000
      5 H          10.0916    0.9954    6.3476 H       1  UNL1        0.0000
      6 H          10.6713    0.1289    4.9357 H       1  UNL1        0.0000
      7 H          11.8131    0.9406    5.9974 H       1  UNL1        0.0000
      8 H          12.8454    2.6033    3.2590 H       1  UNL1        0.0000
      9 H          11.6199    3.4805    2.3549 H       1  UNL1        0.0000
     10 C          10.8278    4.1937    5.5484 C.3     1  UNL1        0.0000
     11 H          11.6199    1.7260    2.3548 H       1  UNL1        0.0000
     12 H          10.0915    4.2111    6.3476 H       1  UNL1        0.0000
     13 H          10.6713    5.0776    4.9357 H       1  UNL1        0.0000
     14 H          11.8131    4.2659    5.9974 H       1  UNL1        0.0000
@<TRIPOS>BOND
     1    11     4    1
     2     9     4    1
     3     4     8    1
     4     4     1    1
     5     2     1    1
     6     1     3    1
     7     1    10    1
     8    13    10    1
     9     6     3    1
    10     3     7    1
    11     3     5    1
    12    10    14    1
    13    10    12    1
