@<TRIPOS>MOLECULE
1
 14 13 0 0 0
SMALL
GASTEIGER

@<TRIPOS>ATOM
      1 N           6.0431    1.4898    1.3098 N.3     1  UNL1       -0.1371
      2 C           7.0015    0.9551    2.1964 C.3     1  UNL1        0.0466
      3 C           8.3190    1.7516    2.1905 C.3     1  UNL1       -0.0443
      4 H           8.7307    1.7796    1.1860 H       1  UNL1        0.0248
      5 H           9.0389    1.2824    2.8561 H       1  UNL1        0.0248
      6 H           8.1416    2.7702    2.5250 H       1  UNL1        0.0248
      7 C           6.4020    0.9634    3.6173 C.3     1  UNL1       -0.0443
      8 H           5.4529    0.4338    3.6021 H       1  UNL1        0.0248
      9 H           6.2282    1.9886    3.9348 H       1  UNL1        0.0248
     10 H           7.0755    0.4785    4.3186 H       1  UNL1        0.0248
     11 C           7.2761   -0.4997    1.7653 C.3     1  UNL1       -0.0443
     12 H           6.3338   -1.0420    1.7367 H       1  UNL1        0.0248
     13 H           7.9577   -0.9856    2.4582 H       1  UNL1        0.0248
     14 H           7.7057   -0.5089    0.7671 H       1  UNL1        0.0248
@<TRIPOS>BOND
     1    14    11    1
     2     4     3    1
     3     1     2    1
     4    12    11    1
     5    11     2    1
     6    11    13    1
     7     3     2    1
     8     3     6    1
     9     3     5    1
    10     2     7    1
    11     8     7    1
    12     7     9    1
    13     7    10    1
