@<TRIPOS>MOLECULE
1
 18 18 0 0 0
SMALL
GASTEIGER

@<TRIPOS>ATOM
      1 N           7.5855   11.2189    8.9455 N.pl3   1  UNL1       -0.1288
      2 C           7.3586   12.5327    8.8743 C.ar    1  UNL1        0.0782
      3 C           6.8217   13.1159    7.6971 C.ar    1  UNL1       -0.0257
      4 C           6.6084   14.4807    7.6358 C.ar    1  UNL1       -0.0570
      5 C           6.8977   15.3047    8.7093 C.ar    1  UNL1       -0.0611
      6 H           6.7223   16.3679    8.6461 H       1  UNL1        0.0618
      7 C           7.4102   14.7478    9.8678 C.ar    1  UNL1       -0.0570
      8 H           7.6354   15.3813   10.7145 H       1  UNL1        0.0621
      9 C           7.6473   13.3891    9.9695 C.ar    1  UNL1       -0.0257
     10 C           6.4810   12.2539    6.5198 C.3     1  UNL1       -0.0378
     11 H           6.6791   11.2119    6.7686 H       1  UNL1        0.0278
     12 H           5.4290   12.3692    6.2654 H       1  UNL1        0.0278
     13 H           7.0668   12.5533    5.6509 H       1  UNL1        0.0278
     14 C           8.2150   12.8303   11.2403 C.3     1  UNL1       -0.0378
     15 H           8.0094   11.7609   11.2939 H       1  UNL1        0.0278
     16 H           9.2955   12.9811   11.2696 H       1  UNL1        0.0278
     17 H           7.7835   13.3320   12.1054 H       1  UNL1        0.0278
     18 H           6.2015   14.9035    6.7277 H       1  UNL1        0.0621
@<TRIPOS>BOND
     1    13    10    1
     2    12    10    1
     3    10    11    1
     4    10     3    1
     5    18     4    1
     6     4     3   ar
     7     4     5   ar
     8     3     2   ar
     9     6     5    1
    10     5     7   ar
    11     2     1    1
    12     2     9   ar
    13     7     9   ar
    14     7     8    1
    15     9    14    1
    16    14    16    1
    17    14    15    1
    18    14    17    1
