@<TRIPOS>MOLECULE
1
 15 14 0 0 0
SMALL
GASTEIGER

@<TRIPOS>ATOM
      1 N          12.1938   10.6567    4.6897 N.3     1  UNL1       -0.1315
      2 C          13.2218   10.1656    4.4877 C.3     1  UNL1        0.1066
      3 C          14.5194    9.6063    4.2144 C.3     1  UNL1       -0.0126
      4 C          14.4660    8.9282    2.8355 C.3     1  UNL1       -0.0582
      5 H          13.7318    8.1255    2.8292 H       1  UNL1        0.0236
      6 H          15.4407    8.5059    2.6049 H       1  UNL1        0.0236
      7 H          14.2054    9.6449    2.0594 H       1  UNL1        0.0236
      8 C          15.5293   10.7646    4.2164 C.3     1  UNL1       -0.0582
      9 H          15.2647   11.5157    3.4752 H       1  UNL1        0.0236
     10 H          16.5172   10.3776    3.9807 H       1  UNL1        0.0236
     11 H          15.5661   11.2334    5.1957 H       1  UNL1        0.0236
     12 C          14.8757    8.5863    5.3046 C.3     1  UNL1       -0.0582
     13 H          14.8547    9.0534    6.2851 H       1  UNL1        0.0236
     14 H          15.8762    8.2029    5.1221 H       1  UNL1        0.0236
     15 H          14.1791    7.7519    5.2967 H       1  UNL1        0.0236
@<TRIPOS>BOND
     1     7     4    1
     2     6     4    1
     3     5     4    1
     4     4     3    1
     5     9     8    1
     6    10     8    1
     7     3     8    1
     8     3     2    1
     9     3    12    1
    10     8    11    1
    11     2     1    1
    12    14    12    1
    13    15    12    1
    14    12    13    1
