@<TRIPOS>MOLECULE
1
 30 30 0 0 0
SMALL
GASTEIGER

@<TRIPOS>ATOM
      1 N          -1.7544   -2.2715   -2.3353 N.pl3   1  UNL1       -0.1288
      2 C          -2.5477   -2.3822   -1.2571 C.ar    1  UNL1        0.0792
      3 C          -3.1161   -1.2154   -0.6819 C.ar    1  UNL1       -0.0200
      4 C          -2.8398   -3.6493   -0.6953 C.ar    1  UNL1       -0.0200
      5 C          -3.7064   -3.7250    0.3792 C.ar    1  UNL1       -0.0564
      6 C          -4.2753   -2.5876    0.9231 C.ar    1  UNL1       -0.0611
      7 C          -3.9740   -1.3441    0.3922 C.ar    1  UNL1       -0.0564
      8 C          -2.7898    0.1208   -1.3038 C.3     1  UNL1       -0.0196
      9 H          -1.7532    0.0598   -1.6657 H       1  UNL1        0.0344
     10 C          -2.2376   -4.8961   -1.2958 C.3     1  UNL1       -0.0196
     11 H          -1.4584   -4.5755   -2.0007 H       1  UNL1        0.0344
     12 C          -3.3072   -5.6639   -2.0766 C.3     1  UNL1       -0.0586
     13 H          -4.1291   -5.9485   -1.4226 H       1  UNL1        0.0235
     14 H          -2.8878   -6.5689   -2.5148 H       1  UNL1        0.0235
     15 H          -3.7047   -5.0406   -2.8758 H       1  UNL1        0.0235
     16 C          -2.8972    1.2962   -0.3363 C.3     1  UNL1       -0.0586
     17 H          -3.9351    1.5086   -0.0889 H       1  UNL1        0.0235
     18 H          -2.4741    2.1892   -0.7939 H       1  UNL1        0.0235
     19 H          -2.3522    1.0906    0.5828 H       1  UNL1        0.0235
     20 C          -3.6961    0.3373   -2.5207 C.3     1  UNL1       -0.0586
     21 C          -1.5911   -5.7908   -0.2383 C.3     1  UNL1       -0.0586
     22 H          -0.8935   -5.2188    0.3702 H       1  UNL1        0.0235
     23 H          -1.0463   -6.6031   -0.7172 H       1  UNL1        0.0235
     24 H          -2.3394   -6.2287    0.4182 H       1  UNL1        0.0235
     25 H          -3.9478   -4.6898    0.8017 H       1  UNL1        0.0621
     26 H          -4.9534   -2.6679    1.7606 H       1  UNL1        0.0618
     27 H          -4.4233   -0.4652    0.8289 H       1  UNL1        0.0621
     28 H          -4.7437    0.2824   -2.2299 H       1  UNL1        0.0235
     29 H          -3.4964   -0.4343   -3.2650 H       1  UNL1        0.0235
     30 H          -3.5113    1.3123   -2.9696 H       1  UNL1        0.0235
@<TRIPOS>BOND
     1    29    20    1
     2    30    20    1
     3    15    12    1
     4    20    28    1
     5    20     8    1
     6    14    12    1
     7     1     2    1
     8    12    13    1
     9    12    10    1
    10    11    10    1
    11     9     8    1
    12     8     3    1
    13     8    16    1
    14    10     4    1
    15    10    21    1
    16     2     4   ar
    17     2     3   ar
    18    18    16    1
    19    23    21    1
    20     4     5   ar
    21     3     7   ar
    22    16    17    1
    23    16    19    1
    24    21    22    1
    25    21    24    1
    26     5    25    1
    27     5     6   ar
    28     7    27    1
    29     7     6   ar
    30     6    26    1
