@<TRIPOS>MOLECULE
1
 13 13 0 0 0
SMALL
GASTEIGER

@<TRIPOS>ATOM
      1 N           4.2759    5.6299    4.0941 N.3     1  UNL1       -0.1263
      2 C           5.0580    6.4203    4.4387 C.3     1  UNL1        0.1344
      3 C           6.0089    7.3415    4.8676 C.ar    1  UNL1       -0.0199
      4 C           5.9895    8.6651    4.3973 C.ar    1  UNL1       -0.0566
      5 C           6.9480    9.5593    4.8230 C.ar    1  UNL1       -0.0614
      6 C           7.9349    9.1643    5.7157 C.ar    1  UNL1       -0.0617
      7 C           7.9586    7.8575    6.1843 C.ar    1  UNL1       -0.0614
      8 C           7.0107    6.9471    5.7712 C.ar    1  UNL1       -0.0566
      9 H           5.2176    8.9677    3.7052 H       1  UNL1        0.0621
     10 H           6.9283   10.5759    4.4580 H       1  UNL1        0.0618
     11 H           8.6812    9.8712    6.0447 H       1  UNL1        0.0618
     12 H           8.7258    7.5495    6.8793 H       1  UNL1        0.0618
     13 H           7.0238    5.9289    6.1296 H       1  UNL1        0.0621
@<TRIPOS>BOND
     1     9     4    1
     2     1     2    1
     3     4     5   ar
     4     4     3   ar
     5     2     3    1
     6    10     5    1
     7     5     6   ar
     8     3     8   ar
     9     6    11    1
    10     6     7   ar
    11     8    13    1
    12     8     7   ar
    13     7    12    1
