@<TRIPOS>MOLECULE
1
 5 4 0 0 0
SMALL
GASTEIGER

@<TRIPOS>ATOM
      1 N           7.6030    1.8189   12.9628 N.3     1  UNL1       -0.1471
      2 C           7.3538    3.0021   12.2365 C.3     1  UNL1        0.0210
      3 H           6.6682    2.8183   11.3982 H       1  UNL1        0.0420
      4 H           8.2940    3.3957   11.8308 H       1  UNL1        0.0420
      5 H           6.9104    3.7725   12.8815 H       1  UNL1        0.0420
@<TRIPOS>BOND
     1     3     2    1
     2     4     2    1
     3     2     5    1
     4     2     1    1
