@<TRIPOS>MOLECULE
2
 41 40 0 0 0
SMALL
GASTEIGER

@<TRIPOS>ATOM
      1 SI          5.3185    9.1380   14.3963 Si      1  UNL1        0.0000
      2 N           5.2098    9.9450   15.8929 N.3     1  UNL1        0.0000
      3 C           4.4657   10.3865   13.1396 C.3     1  UNL1        0.0000
      4 C           2.9401   10.3110   13.2322 C.3     1  UNL1        0.0000
      5 H           2.5645    9.3484   12.9011 H       1  UNL1        0.0000
      6 H           2.4900   11.0757   12.5967 H       1  UNL1        0.0000
      7 H           2.6114   10.4865   14.2539 H       1  UNL1        0.0000
      8 C           4.8342   11.8183   13.5420 C.3     1  UNL1        0.0000
      9 H           4.5743   11.9716   14.5993 H       1  UNL1        0.0000
     10 H           4.2744   12.5394   12.9451 H       1  UNL1        0.0000
     11 H           5.8928   12.0168   13.4105 H       1  UNL1        0.0000
     12 C           4.8663   10.1410   11.6856 C.3     1  UNL1        0.0000
     13 H           4.6144    9.1271   11.3858 H       1  UNL1        0.0000
     14 H           5.9325   10.2851   11.5358 H       1  UNL1        0.0000
     15 H           4.3395   10.8309   11.0248 H       1  UNL1        0.0000
     16 C           4.3198    7.4776   14.6431 C.3     1  UNL1        0.0000
     17 C           3.9152    6.7912   13.3386 C.3     1  UNL1        0.0000
     18 H           4.7925    6.5417   12.7464 H       1  UNL1        0.0000
     19 H           3.2683    7.4211   12.7355 H       1  UNL1        0.0000
     20 H           3.3765    5.8675   13.5522 H       1  UNL1        0.0000
     21 C           5.1496    6.4845   15.4582 C.3     1  UNL1        0.0000
     22 H           6.0129    6.1366   14.8980 H       1  UNL1        0.0000
     23 H           4.5467    5.6115   15.7113 H       1  UNL1        0.0000
     24 H           5.4843    6.9499   16.3804 H       1  UNL1        0.0000
     25 C           3.0710    7.7915   15.4771 C.3     1  UNL1        0.0000
     26 H           3.3405    8.4304   16.3311 H       1  UNL1        0.0000
     27 H           2.6274    6.8716   15.8579 H       1  UNL1        0.0000
     28 H           2.3169    8.3060   14.8917 H       1  UNL1        0.0000
     29 C           7.2419    8.9277   14.1200 C.3     1  UNL1        0.0000
     30 C           7.8872   10.2812   13.8147 C.3     1  UNL1        0.0000
     31 H           7.5404   10.6936   12.8718 H       1  UNL1        0.0000
     32 H           8.9704   10.1709   13.7483 H       1  UNL1        0.0000
     33 H           7.6700   10.9844   14.6178 H       1  UNL1        0.0000
     34 C           7.8891    8.4406   15.4207 C.3     1  UNL1        0.0000
     35 H           7.6153    7.4183   15.6506 H       1  UNL1        0.0000
     36 H           7.5773    9.0740   16.2534 H       1  UNL1        0.0000
     37 H           8.9753    8.4876   15.3388 H       1  UNL1        0.0000
     38 C           7.5783    7.9579   12.9898 C.3     1  UNL1        0.0000
     39 H           7.1574    8.2950   12.0462 H       1  UNL1        0.0000
     40 H           7.1905    6.9649   13.1989 H       1  UNL1        0.0000
     41 H           8.6593    7.8771   12.8699 H       1  UNL1        0.0000
@<TRIPOS>BOND
     1    15    12    1
     2    13    12    1
     3    14    12    1
     4    12     3    1
     5    39    38    1
     6     6     4    1
     7    19    17    1
     8    18    17    1
     9    41    38    1
    10    31    30    1
    11     5     4    1
    12    10     8    1
    13    38    40    1
    14    38    29    1
    15     3     4    1
    16     3     8    1
    17     3     1    1
    18     4     7    1
    19    17    20    1
    20    17    16    1
    21    11     8    1
    22     8     9    1
    23    32    30    1
    24    30    29    1
    25    30    33    1
    26    29     1    1
    27    29    34    1
    28     1    16    1
    29     1     2    1
    30    16    21    1
    31    16    25    1
    32    28    25    1
    33    22    21    1
    34    37    34    1
    35    34    35    1
    36    34    36    1
    37    21    23    1
    38    21    24    1
    39    25    27    1
    40    25    26    1
