@<TRIPOS>MOLECULE
1
 41 40 0 0 0
SMALL
GASTEIGER

@<TRIPOS>ATOM
      1 N           4.3833    9.9474   18.7792 N.3     1  UNL1        0.0000
      2 SI          4.2754    9.1385   20.2750 Si      1  UNL1        0.0000
      3 C           5.1274   10.3871   21.5322 C.3     1  UNL1        0.0000
      4 C           6.6528   10.3113   21.4388 C.3     1  UNL1        0.0000
      5 H           7.0285    9.3486   21.7694 H       1  UNL1        0.0000
      6 H           7.1033   11.0758   22.0742 H       1  UNL1        0.0000
      7 H           6.9811   10.4870   20.4169 H       1  UNL1        0.0000
      8 C           4.7592   11.8191   21.1304 C.3     1  UNL1        0.0000
      9 H           5.0189   11.9727   20.0732 H       1  UNL1        0.0000
     10 H           5.3193   12.5401   21.7274 H       1  UNL1        0.0000
     11 H           3.7007   12.0179   21.2622 H       1  UNL1        0.0000
     12 C           4.7274   10.1415   22.9863 C.3     1  UNL1        0.0000
     13 H           4.9793    9.1275   23.2859 H       1  UNL1        0.0000
     14 H           3.6613   10.2857   23.1366 H       1  UNL1        0.0000
     15 H           5.2546   10.8312   23.6471 H       1  UNL1        0.0000
     16 C           5.2729    7.4776   20.0273 C.3     1  UNL1        0.0000
     17 C           5.6776    6.7916   21.3320 C.3     1  UNL1        0.0000
     18 H           4.8006    6.5421   21.9245 H       1  UNL1        0.0000
     19 H           6.3248    7.4214   21.9349 H       1  UNL1        0.0000
     20 H           6.2162    5.8680   21.1180 H       1  UNL1        0.0000
     21 C           4.4420    6.4852   19.2126 C.3     1  UNL1        0.0000
     22 H           3.5789    6.1372   19.7730 H       1  UNL1        0.0000
     23 H           5.0449    5.6123   18.9590 H       1  UNL1        0.0000
     24 H           4.1071    6.9509   18.2906 H       1  UNL1        0.0000
     25 C           6.5211    7.7928   19.1932 C.3     1  UNL1        0.0000
     26 H           6.2510    8.4314   18.3391 H       1  UNL1        0.0000
     27 H           6.9646    6.8729   18.8125 H       1  UNL1        0.0000
     28 H           7.2754    8.3076   19.7782 H       1  UNL1        0.0000
     29 C           2.3519    8.9285   20.5519 C.3     1  UNL1        0.0000
     30 C           1.7056   10.2815   20.8578 C.3     1  UNL1        0.0000
     31 H           2.0528   10.6937   21.8007 H       1  UNL1        0.0000
     32 H           0.6224   10.1712   20.9247 H       1  UNL1        0.0000
     33 H           1.9225   10.9851   20.0549 H       1  UNL1        0.0000
     34 C           1.7036    8.4420   19.2515 C.3     1  UNL1        0.0000
     35 H           1.9772    7.4197   19.0215 H       1  UNL1        0.0000
     36 H           2.0153    9.0753   18.4187 H       1  UNL1        0.0000
     37 H           0.6174    8.4891   19.3336 H       1  UNL1        0.0000
     38 C           2.0152    7.9585   21.6818 C.3     1  UNL1        0.0000
     39 H           2.4363    8.2954   22.6254 H       1  UNL1        0.0000
     40 H           2.4030    6.9657   21.4724 H       1  UNL1        0.0000
     41 H           0.9342    7.8775   21.8021 H       1  UNL1        0.0000
@<TRIPOS>BOND
     1    24    21    1
     2    26    25    1
     3    36    34    1
     4     1     2    1
     5    27    25    1
     6    23    21    1
     7    35    34    1
     8    25    28    1
     9    25    16    1
    10    21    22    1
    11    21    16    1
    12    34    37    1
    13    34    29    1
    14    16     2    1
    15    16    17    1
    16    33    30    1
    17     9     8    1
    18     2    29    1
    19     2     3    1
    20     7     4    1
    21    29    30    1
    22    29    38    1
    23    30    32    1
    24    30    31    1
    25    20    17    1
    26     8    11    1
    27     8     3    1
    28     8    10    1
    29    17    18    1
    30    17    19    1
    31     4     3    1
    32     4     5    1
    33     4     6    1
    34    40    38    1
    35     3    12    1
    36    38    41    1
    37    38    39    1
    38    12    14    1
    39    12    13    1
    40    12    15    1
