@<TRIPOS>MOLECULE
2
 41 40 0 0 0
SMALL
GASTEIGER

@<TRIPOS>ATOM
      1 SI          3.8016   13.1548    8.1440 Si      1  UNL1        0.0000
      2 N           5.4789   13.2898    8.3967 N.3     1  UNL1        0.0000
      3 C           3.6297   11.8160    6.7270 C.3     1  UNL1        0.0000
      4 C           2.2295   11.2127    6.6312 C.3     1  UNL1        0.0000
      5 H           2.1816   10.4943    5.8120 H       1  UNL1        0.0000
      6 H           1.4884   11.9864    6.4464 H       1  UNL1        0.0000
      7 H           1.9571   10.6938    7.5460 H       1  UNL1        0.0000
      8 C           4.6572   10.7043    6.9669 C.3     1  UNL1        0.0000
      9 H           4.6895   10.0293    6.1112 H       1  UNL1        0.0000
     10 H           4.4215   10.1178    7.8481 H       1  UNL1        0.0000
     11 H           5.6499   11.1441    7.0979 H       1  UNL1        0.0000
     12 C           3.9825   12.4278    5.3697 C.3     1  UNL1        0.0000
     13 H           3.9899   11.6530    4.6016 H       1  UNL1        0.0000
     14 H           4.9720   12.8782    5.4055 H       1  UNL1        0.0000
     15 H           3.2593   13.1802    5.0699 H       1  UNL1        0.0000
     16 C           3.1346   12.5839    9.8953 C.3     1  UNL1        0.0000
     17 C           3.4552   11.1074   10.1341 C.3     1  UNL1        0.0000
     18 H           3.1632   10.8182   11.1448 H       1  UNL1        0.0000
     19 H           4.5242   10.9349   10.0269 H       1  UNL1        0.0000
     20 H           2.9219   10.4641    9.4412 H       1  UNL1        0.0000
     21 C           1.6285   12.7786   10.0531 C.3     1  UNL1        0.0000
     22 H           1.3016   12.4331   11.0347 H       1  UNL1        0.0000
     23 H           1.0843   12.2170    9.2980 H       1  UNL1        0.0000
     24 H           1.3558   13.8257    9.9605 H       1  UNL1        0.0000
     25 C           3.8730   13.3630   10.9899 C.3     1  UNL1        0.0000
     26 H           3.7023   12.9026   11.9634 H       1  UNL1        0.0000
     27 H           3.5419   14.3933   11.0468 H       1  UNL1        0.0000
     28 H           4.9510   13.3657   10.7837 H       1  UNL1        0.0000
     29 C           3.2611   14.9623    7.6240 C.3     1  UNL1        0.0000
     30 C           1.8657   15.0357    7.0060 C.3     1  UNL1        0.0000
     31 H           1.6184   16.0668    6.7512 H       1  UNL1        0.0000
     32 H           1.1143   14.6694    7.7010 H       1  UNL1        0.0000
     33 H           1.8041   14.4433    6.0972 H       1  UNL1        0.0000
     34 C           3.3079   15.8850    8.8430 C.3     1  UNL1        0.0000
     35 H           3.1308   16.9178    8.5402 H       1  UNL1        0.0000
     36 H           4.2905   15.8282    9.3106 H       1  UNL1        0.0000
     37 H           2.5490   15.6237    9.5740 H       1  UNL1        0.0000
     38 C           4.2919   15.5197    6.6375 C.3     1  UNL1        0.0000
     39 H           4.1554   16.5945    6.5149 H       1  UNL1        0.0000
     40 H           4.2094   15.0583    5.6600 H       1  UNL1        0.0000
     41 H           5.3059   15.3388    7.0267 H       1  UNL1        0.0000
@<TRIPOS>BOND
     1    13    12    1
     2    15    12    1
     3    12    14    1
     4    12     3    1
     5    40    38    1
     6     5     4    1
     7    33    30    1
     8     9     8    1
     9     6     4    1
    10    39    38    1
    11     4     3    1
    12     4     7    1
    13    38    41    1
    14    38    29    1
    15     3     8    1
    16     3     1    1
    17    31    30    1
    18     8    11    1
    19     8    10    1
    20    30    29    1
    21    30    32    1
    22    29     1    1
    23    29    34    1
    24     1     2    1
    25     1    16    1
    26    35    34    1
    27    34    36    1
    28    34    37    1
    29    23    21    1
    30    20    17    1
    31    16    21    1
    32    16    17    1
    33    16    25    1
    34    24    21    1
    35    19    17    1
    36    21    22    1
    37    17    18    1
    38    28    25    1
    39    25    27    1
    40    25    26    1
