@<TRIPOS>MOLECULE
1
 25 26 0 0 0
SMALL
GASTEIGER

@<TRIPOS>ATOM
      1 N          10.0534   13.9529    0.0882 N.pl3   1  UNL1       -0.0061
      2 N          10.6770   14.7150   -0.6225 N.2     1  UNL1       -0.1408
      3 C          11.6056   14.7115   -1.5230 C.2     1  UNL1        0.0995
      4 C          12.2169   13.4613   -1.9904 C.ar    1  UNL1        0.0026
      5 C          13.5752   13.4046   -2.3081 C.ar    1  UNL1       -0.0525
      6 H          14.1804   14.2954   -2.2256 H       1  UNL1        0.0624
      7 C          14.1494   12.2106   -2.6996 C.ar    1  UNL1       -0.0611
      8 H          15.2027   12.1772   -2.9388 H       1  UNL1        0.0618
      9 C          13.3850   11.0571   -2.7789 C.ar    1  UNL1       -0.0617
     10 H          13.8392   10.1266   -3.0860 H       1  UNL1        0.0618
     11 C          12.0392   11.1018   -2.4535 C.ar    1  UNL1       -0.0611
     12 H          11.4380   10.2063   -2.5055 H       1  UNL1        0.0618
     13 C          11.4612   12.2918   -2.0573 C.ar    1  UNL1       -0.0525
     14 H          10.4124   12.3237   -1.8027 H       1  UNL1        0.0624
     15 C          12.0491   16.0140   -2.0120 C.ar    1  UNL1        0.0026
     16 C          11.9098   17.1445   -1.2023 C.ar    1  UNL1       -0.0525
     17 H          11.4853   17.0313   -0.2151 H       1  UNL1        0.0624
     18 C          12.3177   18.3843   -1.6512 C.ar    1  UNL1       -0.0611
     19 H          12.2107   19.2487   -1.0121 H       1  UNL1        0.0618
     20 C          12.8681   18.5224   -2.9161 C.ar    1  UNL1       -0.0617
     21 H          13.1913   19.4921   -3.2649 H       1  UNL1        0.0618
     22 C          12.9962   17.4112   -3.7335 C.ar    1  UNL1       -0.0611
     23 H          13.4115   17.5161   -4.7254 H       1  UNL1        0.0618
     24 C          12.5897   16.1672   -3.2898 C.ar    1  UNL1       -0.0525
     25 H          12.6715   15.3097   -3.9417 H       1  UNL1        0.0624
@<TRIPOS>BOND
     1    23    22    1
     2    25    24    1
     3    22    24   ar
     4    22    20   ar
     5    24    15   ar
     6    21    20    1
     7    10     9    1
     8     8     7    1
     9    20    18   ar
    10     9     7   ar
    11     9    11   ar
    12     7     5   ar
    13    12    11    1
    14    11    13   ar
    15     5     6    1
    16     5     4   ar
    17    13     4   ar
    18    13    14    1
    19    15     3    1
    20    15    16   ar
    21     4     3    1
    22    18    16   ar
    23    18    19    1
    24     3     2    2
    25    16    17    1
    26     2     1    1
