@<TRIPOS>MOLECULE
1
 25 26 0 0 0
SMALL
GASTEIGER

@<TRIPOS>ATOM
      1 N           8.2371   14.6642    2.6076 N.pl3   1  UNL1       -0.0061
      2 N           7.6484   15.7021    2.8327 N.2     1  UNL1       -0.1408
      3 C           6.7232   16.1841    3.5976 C.2     1  UNL1        0.0995
      4 C           6.0628   15.3578    4.6159 C.ar    1  UNL1        0.0026
      5 C           4.7021   15.5106    4.8879 C.ar    1  UNL1       -0.0525
      6 H           4.1319   16.2579    4.3559 H       1  UNL1        0.0624
      7 C           4.0804   14.6922    5.8111 C.ar    1  UNL1       -0.0611
      8 H           3.0257   14.8162    6.0104 H       1  UNL1        0.0618
      9 C           4.7996   13.7110    6.4753 C.ar    1  UNL1       -0.0617
     10 H           4.3087   13.0746    7.1966 H       1  UNL1        0.0618
     11 C           6.1475   13.5449    6.2030 C.ar    1  UNL1       -0.0611
     12 H           6.7134   12.7780    6.7106 H       1  UNL1        0.0618
     13 C           6.7728   14.3569    5.2773 C.ar    1  UNL1       -0.0525
     14 H           7.8231   14.2242    5.0653 H       1  UNL1        0.0624
     15 C           6.3336   17.5713    3.3611 C.ar    1  UNL1        0.0026
     16 C           6.5270   18.1417    2.0999 C.ar    1  UNL1       -0.0525
     17 H           6.9545   17.5372    1.3130 H       1  UNL1        0.0624
     18 C           6.1686   19.4526    1.8595 C.ar    1  UNL1       -0.0611
     19 H           6.3179   19.8786    0.8780 H       1  UNL1        0.0618
     20 C           5.6139   20.2214    2.8709 C.ar    1  UNL1       -0.0617
     21 H           5.3289   21.2455    2.6806 H       1  UNL1        0.0618
     22 C           5.4322   19.6712    4.1294 C.ar    1  UNL1       -0.0611
     23 H           5.0138   20.2708    4.9247 H       1  UNL1        0.0618
     24 C           5.7900   18.3597    4.3768 C.ar    1  UNL1       -0.0525
     25 H           5.6671   17.9456    5.3669 H       1  UNL1        0.0624
@<TRIPOS>BOND
     1    19    18    1
     2    17    16    1
     3    18    16   ar
     4    18    20   ar
     5    16    15   ar
     6     1     2    1
     7    21    20    1
     8     2     3    2
     9    20    22   ar
    10    15     3    1
    11    15    24   ar
    12     3     4    1
    13    22    24   ar
    14    22    23    1
    15     6     5    1
    16    24    25    1
    17     4     5   ar
    18     4    13   ar
    19     5     7   ar
    20    14    13    1
    21    13    11   ar
    22     7     8    1
    23     7     9   ar
    24    11     9   ar
    25    11    12    1
    26     9    10    1
