@<TRIPOS>MOLECULE
1
 12 12 0 0 0
SMALL
GASTEIGER

@<TRIPOS>ATOM
      1 N          -2.3226    1.8293    4.6032 N.pl3   1  UNL1       -0.1294
      2 C          -3.3954    2.4024    4.0656 C.ar    1  UNL1        0.0724
      3 C          -4.6885    2.0471    4.4962 C.ar    1  UNL1       -0.0372
      4 C          -5.7977    2.6180    3.9128 C.ar    1  UNL1       -0.0599
      5 C          -5.6564    3.5558    2.9000 C.ar    1  UNL1       -0.0616
      6 C          -4.3882    3.9214    2.4716 C.ar    1  UNL1       -0.0599
      7 C          -3.2672    3.3576    3.0396 C.ar    1  UNL1       -0.0372
      8 H          -4.7754    1.3152    5.2888 H       1  UNL1        0.0637
      9 H          -6.7855    2.3338    4.2472 H       1  UNL1        0.0618
     10 H          -6.5304    4.0006    2.4478 H       1  UNL1        0.0618
     11 H          -4.2786    4.6538    1.6843 H       1  UNL1        0.0618
     12 H          -2.2688    3.6275    2.7219 H       1  UNL1        0.0637
@<TRIPOS>BOND
     1    11     6    1
     2    10     5    1
     3     6     5   ar
     4     6     7   ar
     5    12     7    1
     6     5     4   ar
     7     7     2   ar
     8     4     9    1
     9     4     3   ar
    10     2     3   ar
    11     2     1    1
    12     3     8    1
