@<TRIPOS>MOLECULE
1
 6 5 0 0 0
SMALL
GASTEIGER

@<TRIPOS>ATOM
      1 N           6.0735   13.0028   -1.6139 N.3     1  UNL1       -0.1324
      2 C           5.8847   13.1653   -2.7404 C.3     1  UNL1        0.0975
      3 C           5.6760   13.3623   -4.1413 C.3     1  UNL1       -0.0400
      4 H           6.2615   14.2175   -4.4817 H       1  UNL1        0.0250
      5 H           4.6206   13.5526   -4.3366 H       1  UNL1        0.0250
      6 H           5.9849   12.4717   -4.6894 H       1  UNL1        0.0250
@<TRIPOS>BOND
     1     6     3    1
     2     4     3    1
     3     5     3    1
     4     3     2    1
     5     2     1    1
