@<TRIPOS>MOLECULE
1
 15 14 0 0 0
SMALL
GASTEIGER

@<TRIPOS>ATOM
      1 N           4.4789    8.3505   11.9503 N.3     1  UNL1        0.0416
      2 O           4.7452    8.9701   13.1356 O.3     1  UNL1       -0.2566
      3 C           6.1252    8.8392   13.5815 C.3     1  UNL1        0.0860
      4 C           7.0343    9.5197   12.5546 C.3     1  UNL1       -0.0343
      5 C           6.1707    9.5551   14.9284 C.3     1  UNL1       -0.0343
      6 C           6.4919    7.3607   13.7217 C.3     1  UNL1       -0.0343
      7 H           6.8440    9.0805   11.5752 H       1  UNL1        0.0258
      8 H           8.0805    9.3868   12.8171 H       1  UNL1        0.0258
      9 H           6.8106   10.5830   12.5074 H       1  UNL1        0.0258
     10 H           5.4815    9.0801   15.6223 H       1  UNL1        0.0258
     11 H           7.1761    9.5152   15.3388 H       1  UNL1        0.0258
     12 H           5.8751   10.5935   14.8056 H       1  UNL1        0.0258
     13 H           5.9646    6.9185   14.5640 H       1  UNL1        0.0258
     14 H           7.5619    7.2442   13.8700 H       1  UNL1        0.0258
     15 H           6.1907    6.8426   12.8089 H       1  UNL1        0.0258
@<TRIPOS>BOND
     1     7     4    1
     2     1     2    1
     3     9     4    1
     4     4     8    1
     5     4     3    1
     6    15     6    1
     7     2     3    1
     8     3     6    1
     9     3     5    1
    10     6    14    1
    11     6    13    1
    12    12     5    1
    13     5    11    1
    14     5    10    1
