@<TRIPOS>MOLECULE
1
 18 18 0 0 0
SMALL
GASTEIGER

@<TRIPOS>ATOM
      1 N           1.1814    6.9439   15.5816 N.pl3   1  UNL1       -0.1288
      2 C           0.7725    5.9386   16.3689 C.ar    1  UNL1        0.0782
      3 C           1.5105    5.6195   17.5409 C.ar    1  UNL1       -0.0257
      4 C           1.1163    4.5596   18.3347 C.ar    1  UNL1       -0.0570
      5 H           1.6910    4.3293   19.2207 H       1  UNL1        0.0621
      6 C           0.0034    3.7966   18.0232 C.ar    1  UNL1       -0.0611
      7 H          -0.2860    2.9695   18.6535 H       1  UNL1        0.0618
      8 C          -0.7414    4.1204   16.9058 C.ar    1  UNL1       -0.0570
      9 H          -1.6272    3.5504   16.6622 H       1  UNL1        0.0621
     10 C          -0.3837    5.1750   16.0830 C.ar    1  UNL1       -0.0257
     11 C           2.6909    6.4506   17.9293 C.3     1  UNL1       -0.0378
     12 H           3.2242    5.9963   18.7610 H       1  UNL1        0.0278
     13 H           2.3577    7.4458   18.2251 H       1  UNL1        0.0278
     14 H           3.3680    6.5763   17.0847 H       1  UNL1        0.0278
     15 C          -1.2566    5.5079   14.9101 C.3     1  UNL1       -0.0378
     16 H          -2.2616    5.7547   15.2515 H       1  UNL1        0.0278
     17 H          -1.3389    4.6567   14.2332 H       1  UNL1        0.0278
     18 H          -0.8492    6.3636   14.3757 H       1  UNL1        0.0278
@<TRIPOS>BOND
     1    17    15    1
     2    18    15    1
     3    15    16    1
     4    15    10    1
     5     1     2    1
     6    10     2   ar
     7    10     8   ar
     8     2     3   ar
     9     9     8    1
    10     8     6   ar
    11    14    11    1
    12     3    11    1
    13     3     4   ar
    14    11    13    1
    15    11    12    1
    16     6     4   ar
    17     6     7    1
    18     4     5    1
