@<TRIPOS>MOLECULE
1
 18 18 0 0 0
SMALL
GASTEIGER

@<TRIPOS>ATOM
      1 N           2.9191    7.9221    2.3016 N.pl3   1  UNL1       -0.1288
      2 C           3.2952    8.9217    1.4923 C.ar    1  UNL1        0.0782
      3 C           4.4315    9.7249    1.7525 C.ar    1  UNL1       -0.0257
      4 C           4.7599   10.7638    0.8985 C.ar    1  UNL1       -0.0570
      5 H           5.6307   11.3643    1.1233 H       1  UNL1        0.0621
      6 C           4.0050   11.0372   -0.2258 C.ar    1  UNL1       -0.0611
      7 H           4.2715   11.8532   -0.8803 H       1  UNL1        0.0618
      8 C           2.9088   10.2396   -0.5097 C.ar    1  UNL1       -0.0570
      9 H           2.3230   10.4335   -1.3976 H       1  UNL1        0.0621
     10 C           2.5443    9.1937    0.3159 C.ar    1  UNL1       -0.0257
     11 C           1.3736    8.3311   -0.0345 C.3     1  UNL1       -0.0378
     12 H           0.8441    8.7328   -0.8956 H       1  UNL1        0.0278
     13 H           0.6905    8.2533    0.8109 H       1  UNL1        0.0278
     14 H           1.7091    7.3190   -0.2610 H       1  UNL1        0.0278
     15 C           5.3109    9.4515    2.9360 C.3     1  UNL1       -0.0378
     16 H           4.9374    8.5879    3.4822 H       1  UNL1        0.0278
     17 H           5.3480   10.3166    3.5993 H       1  UNL1        0.0278
     18 H           6.3293    9.2461    2.6070 H       1  UNL1        0.0278
@<TRIPOS>BOND
     1     9     8    1
     2    12    11    1
     3     7     6    1
     4     8     6   ar
     5     8    10   ar
     6    14    11    1
     7     6     4   ar
     8    11    10    1
     9    11    13    1
    10    10     2   ar
    11     4     5    1
    12     4     3   ar
    13     2     3   ar
    14     2     1    1
    15     3    15    1
    16    18    15    1
    17    15    16    1
    18    15    17    1
