@<TRIPOS>MOLECULE
2
 14 13 0 0 0
SMALL
GASTEIGER

@<TRIPOS>ATOM
      1 SI         12.0767   12.7601   20.3556 Si      1  UNL1        0.0000
      2 N          11.0709   13.7659   19.3498 N.3     1  UNL1        0.0000
      3 C          12.5489   13.6945   21.9530 C.3     1  UNL1        0.0000
      4 H          13.2452   13.0944   22.5292 H       1  UNL1        0.0000
      5 H          11.6870   13.8849   22.5843 H       1  UNL1        0.0000
      6 H          13.0334   14.6454   21.7520 H       1  UNL1        0.0000
      7 C          13.6741   12.2878   19.4212 C.3     1  UNL1        0.0000
      8 C          11.1422   11.1627   20.8279 C.3     1  UNL1        0.0000
      9 H          14.2502   11.5914   20.0213 H       1  UNL1        0.0000
     10 H          11.7423   10.5865   21.5242 H       1  UNL1        0.0000
     11 H          14.3055   13.1496   19.2309 H       1  UNL1        0.0000
     12 H          10.9518   10.5313   19.9660 H       1  UNL1        0.0000
     13 H          13.4731   11.8033   18.4703 H       1  UNL1        0.0000
     14 H          10.1913   11.3637   21.3124 H       1  UNL1        0.0000
@<TRIPOS>BOND
     1    13     7    1
     2    11     7    1
     3     2     1    1
     4     7     9    1
     5     7     1    1
     6    12     8    1
     7     1     8    1
     8     1     3    1
     9     8    14    1
    10     8    10    1
    11     6     3    1
    12     3     4    1
    13     3     5    1
