@<TRIPOS>MOLECULE
1
 12 12 0 0 0
SMALL
GASTEIGER

@<TRIPOS>ATOM
      1 N           5.3062    2.0715    1.0858 N.pl3   1  UNL1       -0.1294
      2 C           6.3731    2.6671    0.5514 C.ar    1  UNL1        0.0724
      3 C           6.2725    3.3569   -0.6725 C.ar    1  UNL1       -0.0372
      4 C           7.3849    3.9493   -1.2304 C.ar    1  UNL1       -0.0599
      5 C           8.6161    3.8759   -0.5952 C.ar    1  UNL1       -0.0616
      6 C           8.7273    3.2043    0.6136 C.ar    1  UNL1       -0.0599
      7 C           7.6268    2.6079    1.1902 C.ar    1  UNL1       -0.0372
      8 H           5.3076    3.3981   -1.1606 H       1  UNL1        0.0637
      9 H           7.2954    4.4726   -2.1713 H       1  UNL1        0.0618
     10 H           9.4835    4.3393   -1.0405 H       1  UNL1        0.0618
     11 H           9.6844    3.1448    1.1109 H       1  UNL1        0.0618
     12 H           7.7035    2.0785    2.1293 H       1  UNL1        0.0637
@<TRIPOS>BOND
     1     9     4    1
     2     4     3   ar
     3     4     5   ar
     4     8     3    1
     5    10     5    1
     6     3     2   ar
     7     5     6   ar
     8     2     1    1
     9     2     7   ar
    10     6    11    1
    11     6     7   ar
    12     7    12    1
