@<TRIPOS>MOLECULE
1
 26 28 0 0 0
SMALL
GASTEIGER

@<TRIPOS>ATOM
      1 N           8.3447   13.3890    3.3915 N.3     1  UNL1       -0.1362
      2 C           9.0701   14.5614    3.6145 C.3     1  UNL1        0.0557
      3 C           8.9524   15.0578    5.0693 C.3     1  UNL1       -0.0288
      4 C           8.5930   15.6866    2.6726 C.3     1  UNL1       -0.0288
      5 C          10.5565   14.2611    3.3283 C.3     1  UNL1       -0.0288
      6 C           9.8061   16.3093    5.2644 C.3     1  UNL1       -0.0388
      7 C           9.4535   16.9314    2.8775 C.3     1  UNL1       -0.0388
      8 C          11.3988   15.5164    3.5272 C.3     1  UNL1       -0.0388
      9 C           9.3245   17.4123    4.3224 C.3     1  UNL1       -0.0472
     10 C          10.9151   16.6076    2.5736 C.3     1  UNL1       -0.0472
     11 C          11.2711   15.9912    4.9731 C.3     1  UNL1       -0.0472
     12 H           7.9089   15.2873    5.2820 H       1  UNL1        0.0287
     13 H           9.2811   14.2606    5.7390 H       1  UNL1        0.0287
     14 H           8.6619   15.3381    1.6408 H       1  UNL1        0.0287
     15 H           7.5475   15.9129    2.8891 H       1  UNL1        0.0287
     16 H          10.8809   13.4661    4.0049 H       1  UNL1        0.0287
     17 H          10.6445   13.9061    2.3003 H       1  UNL1        0.0287
     18 H           9.7052   16.6464    6.3024 H       1  UNL1        0.0302
     19 H           9.1056   17.7166    2.1971 H       1  UNL1        0.0302
     20 H          12.4460   15.2787    3.3097 H       1  UNL1        0.0302
     21 H           8.2835   17.6597    4.5403 H       1  UNL1        0.0271
     22 H           9.9224   18.3144    4.4696 H       1  UNL1        0.0271
     23 H          11.0099   16.2642    1.5415 H       1  UNL1        0.0271
     24 H          11.5267   17.5049    2.6921 H       1  UNL1        0.0271
     25 H          11.8847   16.8808    5.1317 H       1  UNL1        0.0271
     26 H          11.6236   15.2104    5.6504 H       1  UNL1        0.0271
@<TRIPOS>BOND
     1    23    10    1
     2    14     4    1
     3    19     7    1
     4    17     5    1
     5    10    24    1
     6    10     7    1
     7    10     8    1
     8     4     7    1
     9     4    15    1
    10     4     2    1
    11     7     9    1
    12    20     8    1
    13     5     8    1
    14     5     2    1
    15     5    16    1
    16     1     2    1
    17     8    11    1
    18     2     3    1
    19     9    22    1
    20     9    21    1
    21     9     6    1
    22    11    25    1
    23    11     6    1
    24    11    26    1
    25     3     6    1
    26     3    12    1
    27     3    13    1
    28     6    18    1
