@<TRIPOS>MOLECULE
1
 18 18 0 0 0
SMALL
GASTEIGER

@<TRIPOS>ATOM
      1 N           7.4286    0.8652    7.8664 N.pl3   1  UNL1       -0.1288
      2 C           7.1725    0.6754    6.5731 C.ar    1  UNL1        0.0782
      3 C           7.6583    1.5786    5.5927 C.ar    1  UNL1       -0.0257
      4 C           7.4062    1.3382    4.2541 C.ar    1  UNL1       -0.0570
      5 C           6.6726    0.2370    3.8479 C.ar    1  UNL1       -0.0611
      6 C           6.1626   -0.6325    4.7999 C.ar    1  UNL1       -0.0570
      7 C           6.3951   -0.4330    6.1457 C.ar    1  UNL1       -0.0257
      8 C           8.4265    2.7996    6.0125 C.3     1  UNL1       -0.0378
      9 C           5.8325   -1.3490    7.1881 C.3     1  UNL1       -0.0378
     10 H           7.7868    2.0320    3.5164 H       1  UNL1        0.0621
     11 H           6.4878    0.0638    2.7981 H       1  UNL1        0.0618
     12 H           5.5713   -1.4820    4.4861 H       1  UNL1        0.0621
     13 H           8.0090    3.6860    5.5349 H       1  UNL1        0.0278
     14 H           9.4737    2.7261    5.7147 H       1  UNL1        0.0278
     15 H           8.3689    2.9114    7.0994 H       1  UNL1        0.0278
     16 H           6.6385   -1.8846    7.6933 H       1  UNL1        0.0278
     17 H           5.1501   -2.0703    6.7450 H       1  UNL1        0.0278
     18 H           5.3088   -0.7616    7.9462 H       1  UNL1        0.0278
@<TRIPOS>BOND
     1    11     5    1
     2    10     4    1
     3     5     4   ar
     4     5     6   ar
     5     4     3   ar
     6    12     6    1
     7     6     7   ar
     8    13     8    1
     9     3     8    1
    10     3     2   ar
    11    14     8    1
    12     8    15    1
    13     7     2   ar
    14     7     9    1
    15     2     1    1
    16    17     9    1
    17     9    16    1
    18     9    18    1
