@<TRIPOS>MOLECULE
1
 28 27 0 0 0
SMALL
GASTEIGER

@<TRIPOS>ATOM
      1 N           6.9951    2.7970    9.7360 N.3     1  UNL1       -0.1331
      2 C           6.3266    3.8401    9.6051 C.3     1  UNL1        0.0866
      3 C           4.8322    3.7020    9.2329 C.3     1  UNL1       -0.0141
      4 C           3.9121    4.8784    9.5643 C.3     1  UNL1       -0.0582
      5 C           4.7892    3.4235    7.7217 C.3     1  UNL1       -0.0582
      6 C           4.2717    2.4712    9.9624 C.3     1  UNL1       -0.0582
      7 C           7.0562    5.1950    9.7543 C.3     1  UNL1       -0.0141
      8 C           6.9722    6.0102    8.4591 C.3     1  UNL1       -0.0582
      9 C           6.5225    6.0040   10.9442 C.3     1  UNL1       -0.0582
     10 C           8.5446    4.9162   10.0217 C.3     1  UNL1       -0.0582
     11 H           3.8774    5.0571   10.6359 H       1  UNL1        0.0235
     12 H           2.9030    4.6283    9.2384 H       1  UNL1        0.0235
     13 H           4.1970    5.7947    9.0571 H       1  UNL1        0.0235
     14 H           5.1352    4.2814    7.1510 H       1  UNL1        0.0235
     15 H           3.7696    3.1975    7.4150 H       1  UNL1        0.0235
     16 H           5.4229    2.5664    7.4919 H       1  UNL1        0.0235
     17 H           4.8750    1.5892    9.7342 H       1  UNL1        0.0235
     18 H           3.2442    2.2922    9.6530 H       1  UNL1        0.0235
     19 H           4.2860    2.6322   11.0394 H       1  UNL1        0.0235
     20 H           7.3655    5.4306    7.6263 H       1  UNL1        0.0235
     21 H           7.5685    6.9163    8.5603 H       1  UNL1        0.0235
     22 H           5.9552    6.3058    8.2237 H       1  UNL1        0.0235
     23 H           5.5816    6.4923   10.7178 H       1  UNL1        0.0235
     24 H           7.2417    6.7777   11.2101 H       1  UNL1        0.0235
     25 H           6.3832    5.3595   11.8102 H       1  UNL1        0.0235
     26 H           8.6703    4.3876   10.9652 H       1  UNL1        0.0235
     27 H           9.0943    5.8548   10.0767 H       1  UNL1        0.0235
     28 H           8.9736    4.3110    9.2209 H       1  UNL1        0.0235
@<TRIPOS>BOND
     1    14     5    1
     2    15     5    1
     3    16     5    1
     4    20     8    1
     5     5     3    1
     6    22     8    1
     7     8    21    1
     8     8     7    1
     9    13     4    1
    10    28    10    1
    11     3     4    1
    12     3     2    1
    13     3     6    1
    14    12     4    1
    15     4    11    1
    16     2     1    1
    17     2     7    1
    18    18     6    1
    19    17     6    1
    20     7    10    1
    21     7     9    1
    22     6    19    1
    23    10    27    1
    24    10    26    1
    25    23     9    1
    26     9    24    1
    27     9    25    1
