@<TRIPOS>MOLECULE
1
 13 13 0 0 0
SMALL
GASTEIGER

@<TRIPOS>ATOM
      1 N          32.0215   13.5788    1.0193 N.3     1  UNL1       -0.1263
      2 C          32.0706   14.3664    0.1800 C.3     1  UNL1        0.1344
      3 C          32.0772   15.3351   -0.8323 C.ar    1  UNL1       -0.0199
      4 C          33.0959   15.3721   -1.7882 C.ar    1  UNL1       -0.0566
      5 H          33.8963   14.6490   -1.7418 H       1  UNL1        0.0621
      6 C          33.0546   16.3366   -2.7757 C.ar    1  UNL1       -0.0614
      7 H          33.8350   16.3757   -3.5205 H       1  UNL1        0.0618
      8 C          32.0133   17.2535   -2.8131 C.ar    1  UNL1       -0.0617
      9 H          31.9892   18.0034   -3.5896 H       1  UNL1        0.0618
     10 C          31.0044   17.2129   -1.8617 C.ar    1  UNL1       -0.0614
     11 H          30.1979   17.9290   -1.8982 H       1  UNL1        0.0618
     12 C          31.0247   16.2573   -0.8644 C.ar    1  UNL1       -0.0566
     13 H          30.2527   16.1993   -0.1104 H       1  UNL1        0.0621
@<TRIPOS>BOND
     1     9     8    1
     2     7     6    1
     3     8     6   ar
     4     8    10   ar
     5     6     4   ar
     6    11    10    1
     7    10    12   ar
     8     4     5    1
     9     4     3   ar
    10    12     3   ar
    11    12    13    1
    12     3     2    1
    13     2     1    1
