@<TRIPOS>MOLECULE
1
 14 13 0 0 0
SMALL
GASTEIGER

@<TRIPOS>ATOM
      1 N           2.5764    7.5693    9.5506 N.3     1  UNL1       -0.1371
      2 C           1.3269    7.5660   10.1904 C.3     1  UNL1        0.0466
      3 C           1.5339    7.9802   11.6602 C.3     1  UNL1       -0.0443
      4 H           2.2792    7.3251   12.1095 H       1  UNL1        0.0248
      5 H           0.6026    7.9064   12.2153 H       1  UNL1        0.0248
      6 H           1.9007    9.0027   11.7052 H       1  UNL1        0.0248
      7 C           0.7479    6.1395   10.1275 C.3     1  UNL1       -0.0443
      8 H           1.4826    5.4427   10.5288 H       1  UNL1        0.0248
      9 H           0.5445    5.8711    9.0940 H       1  UNL1        0.0248
     10 H          -0.1703    6.0722   10.7051 H       1  UNL1        0.0248
     11 C           0.3934    8.5593    9.4756 C.3     1  UNL1       -0.0443
     12 H          -0.5834    8.5772    9.9521 H       1  UNL1        0.0248
     13 H           0.2850    8.2624    8.4343 H       1  UNL1        0.0248
     14 H           0.8340    9.5535    9.5102 H       1  UNL1        0.0248
@<TRIPOS>BOND
     1    13    11    1
     2     9     7    1
     3    11    14    1
     4    11    12    1
     5    11     2    1
     6     1     2    1
     7     7     2    1
     8     7     8    1
     9     7    10    1
    10     2     3    1
    11     3     6    1
    12     3     4    1
    13     3     5    1
