@<TRIPOS>MOLECULE
2
 15 14 0 0 0
SMALL
GASTEIGER

@<TRIPOS>ATOM
      1 SI         17.7998    4.5168   15.4417 Si      1  UNL1        0.0000
      2 N          16.4854    3.3506   13.2242 N.3     1  UNL1        0.0000
      3 N          17.3018    3.6839   14.0209 N.3     1  UNL1        0.0000
      4 C          17.5045    3.4391   16.9805 C.3     1  UNL1        0.0000
      5 H          18.0374    2.4968   16.9002 H       1  UNL1        0.0000
      6 H          16.4538    3.2094   17.1257 H       1  UNL1        0.0000
      7 H          17.8614    3.9385   17.8757 H       1  UNL1        0.0000
      8 C          19.6497    4.8446   15.1589 C.3     1  UNL1        0.0000
      9 H          20.1862    3.9213   14.9650 H       1  UNL1        0.0000
     10 H          20.0973    5.3035   16.0340 H       1  UNL1        0.0000
     11 H          19.8279    5.5075   14.3176 H       1  UNL1        0.0000
     12 C          16.8429    6.1719   15.5724 C.3     1  UNL1        0.0000
     13 H          16.9525    6.7747   14.6741 H       1  UNL1        0.0000
     14 H          17.2211    6.7638   16.3995 H       1  UNL1        0.0000
     15 H          15.7811    6.0216   15.7484 H       1  UNL1        0.0000
@<TRIPOS>BOND
     1     2     3    1
     2     3     1    1
     3    11     8    1
     4    13    12    1
     5     9     8    1
     6     8     1    1
     7     8    10    1
     8     1    12    1
     9     1     4    1
    10    12    15    1
    11    12    14    1
    12     5     4    1
    13     4     6    1
    14     4     7    1
