@<TRIPOS>MOLECULE
1
 3 2 0 0 0
SMALL
GASTEIGER

@<TRIPOS>ATOM
      1 N           6.8679    5.4536   14.3494 N.2     1  UNL1        0.0698
      2 N           7.0537    6.3359   15.0950 N.2     1  UNL1       -0.1395
      3 N           7.2879    7.1511   15.8550 N.2     1  UNL1        0.0698
@<TRIPOS>BOND
     1     1     2    2
     2     2     3    2
