@<TRIPOS>MOLECULE
1
 18 18 0 0 0
SMALL
GASTEIGER

@<TRIPOS>ATOM
      1 N          -1.2127    0.8844   13.7867 N.pl3   1  UNL1       -0.1288
      2 C          -2.0495   -0.0634   14.2060 C.ar    1  UNL1        0.0782
      3 C          -2.0284   -0.5098   15.5580 C.ar    1  UNL1       -0.0257
      4 C          -2.9022   -1.4922   15.9784 C.ar    1  UNL1       -0.0570
      5 C          -3.8174   -2.0637   15.1082 C.ar    1  UNL1       -0.0611
      6 C          -3.8582   -1.6326   13.7922 C.ar    1  UNL1       -0.0570
      7 C          -3.0017   -0.6528   13.3297 C.ar    1  UNL1       -0.0257
      8 C          -1.0517    0.1125   16.5161 C.3     1  UNL1       -0.0378
      9 C          -3.0691   -0.1877   11.9023 C.3     1  UNL1       -0.0378
     10 H          -2.8693   -1.8162   17.0105 H       1  UNL1        0.0621
     11 H          -4.4936   -2.8317   15.4532 H       1  UNL1        0.0618
     12 H          -4.5752   -2.0664   13.1073 H       1  UNL1        0.0621
     13 H          -1.5670    0.4734   17.4069 H       1  UNL1        0.0278
     14 H          -0.5454    0.9461   16.0087 H       1  UNL1        0.0278
     15 H          -0.3056   -0.6162   16.8343 H       1  UNL1        0.0278
     16 H          -4.0654    0.1883   11.6664 H       1  UNL1        0.0278
     17 H          -2.3322    0.6060   11.7519 H       1  UNL1        0.0278
     18 H          -2.8538   -1.0087   11.2185 H       1  UNL1        0.0278
@<TRIPOS>BOND
     1    18     9    1
     2    16     9    1
     3    17     9    1
     4     9     7    1
     5    12     6    1
     6     7     6   ar
     7     7     2   ar
     8     1     2    1
     9     6     5   ar
    10     2     3   ar
    11     5    11    1
    12     5     4   ar
    13     3     4   ar
    14     3     8    1
    15     4    10    1
    16    14     8    1
    17     8    15    1
    18     8    13    1
