@<TRIPOS>MOLECULE
1
 14 13 0 0 0
SMALL
GASTEIGER

@<TRIPOS>ATOM
      1 N           8.3515    3.9636    7.2005 N.3     1  UNL1       -0.1371
      2 C           7.9312    2.8633    6.4248 C.3     1  UNL1        0.0466
      3 C           7.0563    1.9191    7.2815 C.3     1  UNL1       -0.0443
      4 H           7.6567    1.5251    8.1013 H       1  UNL1        0.0248
      5 H           6.6810    1.0921    6.6820 H       1  UNL1        0.0248
      6 H           6.2137    2.4726    7.6954 H       1  UNL1        0.0248
      7 C           7.1142    3.3310    5.1989 C.3     1  UNL1       -0.0443
      8 H           6.1870    3.7980    5.5255 H       1  UNL1        0.0248
      9 H           6.8735    2.4867    4.5568 H       1  UNL1        0.0248
     10 H           7.6866    4.0602    4.6278 H       1  UNL1        0.0248
     11 C           9.1663    2.0682    5.9374 C.3     1  UNL1       -0.0443
     12 H           9.8023    1.8507    6.7960 H       1  UNL1        0.0248
     13 H           9.7327    2.6573    5.2191 H       1  UNL1        0.0248
     14 H           8.8624    1.1349    5.4684 H       1  UNL1        0.0248
@<TRIPOS>BOND
     1     9     7    1
     2    10     7    1
     3     7     8    1
     4     7     2    1
     5    13    11    1
     6    14    11    1
     7    11     2    1
     8    11    12    1
     9     2     1    1
    10     2     3    1
    11     5     3    1
    12     3     6    1
    13     3     4    1
