@<TRIPOS>MOLECULE
1
 14 13 0 0 0
SMALL
GASTEIGER

@<TRIPOS>ATOM
      1 N           1.4426    8.0841    4.0818 N.3     1  UNL1        0.0000
      2 SI         -0.1724    8.6303    3.9560 Si      1  UNL1        0.0000
      3 C          -1.1489    7.8864    2.4810 C.3     1  UNL1        0.0000
      4 H          -0.5942    7.9685    1.5510 H       1  UNL1        0.0000
      5 H          -2.0874    8.4159    2.3477 H       1  UNL1        0.0000
      6 H          -1.3901    6.8394    2.6396 H       1  UNL1        0.0000
      7 C          -0.2042   10.5306    3.7183 C.3     1  UNL1        0.0000
      8 H           0.1852   11.0398    4.5941 H       1  UNL1        0.0000
      9 H          -1.2146   10.8900    3.5492 H       1  UNL1        0.0000
     10 H           0.4006   10.8278    2.8667 H       1  UNL1        0.0000
     11 C          -1.1476    8.2008    5.5484 C.3     1  UNL1        0.0000
     12 H          -1.2780    7.1285    5.6558 H       1  UNL1        0.0000
     13 H          -2.1328    8.6560    5.5434 H       1  UNL1        0.0000
     14 H          -0.6227    8.5565    6.4297 H       1  UNL1        0.0000
@<TRIPOS>BOND
     1     4     3    1
     2     5     3    1
     3     3     6    1
     4     3     2    1
     5    10     7    1
     6     9     7    1
     7     7     2    1
     8     7     8    1
     9     2     1    1
    10     2    11    1
    11    13    11    1
    12    11    12    1
    13    11    14    1
