@<TRIPOS>MOLECULE
2
 14 13 0 0 0
SMALL
GASTEIGER

@<TRIPOS>ATOM
      1 SI          3.9870    2.9430   14.2456 Si      1  UNL1        0.0000
      2 N           4.7576    2.8035   12.7321 N.3     1  UNL1        0.0000
      3 C           2.3834    3.9882   14.0517 C.3     1  UNL1        0.0000
      4 H           2.3785    4.8531   14.7074 H       1  UNL1        0.0000
      5 H           1.4920    3.4079   14.2678 H       1  UNL1        0.0000
      6 H           2.3117    4.3417   13.0285 H       1  UNL1        0.0000
      7 C           3.4780    1.2341   14.9652 C.3     1  UNL1        0.0000
      8 H           2.8100    0.7067   14.2918 H       1  UNL1        0.0000
      9 H           2.9650    1.3494   15.9150 H       1  UNL1        0.0000
     10 H           4.3431    0.6013   15.1354 H       1  UNL1        0.0000
     11 C           5.0607    3.7907   15.5964 C.3     1  UNL1        0.0000
     12 H           5.9499    3.2119   15.8222 H       1  UNL1        0.0000
     13 H           4.4997    3.8979   16.5201 H       1  UNL1        0.0000
     14 H           5.3798    4.7815   15.2899 H       1  UNL1        0.0000
@<TRIPOS>BOND
     1     2     1    1
     2     6     3    1
     3     3     1    1
     4     3     5    1
     5     3     4    1
     6     1     7    1
     7     1    11    1
     8     8     7    1
     9     7    10    1
    10     7     9    1
    11    14    11    1
    12    11    12    1
    13    11    13    1
