@<TRIPOS>MOLECULE
1
 30 30 0 0 0
SMALL
GASTEIGER

@<TRIPOS>ATOM
      1 N          -1.6822    9.9410    0.5320 N.pl3   1  UNL1       -0.1288
      2 C          -2.1296    8.7224    0.8744 C.ar    1  UNL1        0.0792
      3 C          -3.0906    8.0559    0.0780 C.ar    1  UNL1       -0.0200
      4 C          -3.5440    6.8107    0.4737 C.ar    1  UNL1       -0.0564
      5 H          -4.2854    6.2938   -0.1155 H       1  UNL1        0.0621
      6 C          -3.0575    6.2080    1.6213 C.ar    1  UNL1       -0.0611
      7 H          -3.4209    5.2336    1.9129 H       1  UNL1        0.0618
      8 C          -2.1035    6.8492    2.3935 C.ar    1  UNL1       -0.0564
      9 H          -1.7307    6.3598    3.2799 H       1  UNL1        0.0621
     10 C          -1.6318    8.1010    2.0452 C.ar    1  UNL1       -0.0200
     11 C          -3.5766    8.7498   -1.1705 C.3     1  UNL1       -0.0196
     12 H          -2.7067    9.2773   -1.6035 H       1  UNL1        0.0344
     13 C          -4.6245    9.8087   -0.8007 C.3     1  UNL1       -0.0586
     14 H          -5.0344   10.2553   -1.7053 H       1  UNL1        0.0235
     15 H          -4.1643   10.5893   -0.1824 H       1  UNL1        0.0235
     16 H          -5.4380    9.3489   -0.2429 H       1  UNL1        0.0235
     17 C          -4.1335    7.8004   -2.2283 C.3     1  UNL1       -0.0586
     18 H          -5.0892    7.3860   -1.9154 H       1  UNL1        0.0235
     19 H          -4.2877    8.3433   -3.1580 H       1  UNL1        0.0235
     20 H          -3.4404    6.9841   -2.4169 H       1  UNL1        0.0235
     21 C          -0.5890    8.8422    2.8457 C.3     1  UNL1       -0.0196
     22 H          -0.8091    9.9154    2.7345 H       1  UNL1        0.0344
     23 C           0.7945    8.5969    2.2311 C.3     1  UNL1       -0.0586
     24 H           0.8208    9.0053    1.2197 H       1  UNL1        0.0235
     25 H           1.5630    9.0857    2.8279 H       1  UNL1        0.0235
     26 H           1.0116    7.5309    2.1906 H       1  UNL1        0.0235
     27 C          -0.5945    8.4853    4.3302 C.3     1  UNL1       -0.0586
     28 H          -0.2211    7.4770    4.4943 H       1  UNL1        0.0235
     29 H           0.0472    9.1722    4.8785 H       1  UNL1        0.0235
     30 H          -1.6005    8.5593    4.7354 H       1  UNL1        0.0235
@<TRIPOS>BOND
     1    19    17    1
     2    20    17    1
     3    17    18    1
     4    17    11    1
     5    14    13    1
     6    12    11    1
     7    11    13    1
     8    11     3    1
     9    13    16    1
    10    13    15    1
    11     5     4    1
    12     3     4   ar
    13     3     2   ar
    14     4     6   ar
    15     1     2    1
    16     2    10   ar
    17    24    23    1
    18     6     7    1
    19     6     8   ar
    20    10     8   ar
    21    10    21    1
    22    26    23    1
    23    23    25    1
    24    23    21    1
    25     8     9    1
    26    22    21    1
    27    21    27    1
    28    27    28    1
    29    27    30    1
    30    27    29    1
