@<TRIPOS>MOLECULE
1
 30 30 0 0 0
SMALL
GASTEIGER

@<TRIPOS>ATOM
      1 N           6.4345    3.4065   13.7040 N.pl3   1  UNL1       -0.1288
      2 C           5.2836    3.6466   14.3559 C.ar    1  UNL1        0.0792
      3 C           4.0476    3.3522   13.7291 C.ar    1  UNL1       -0.0200
      4 C           2.8683    3.6143   14.4024 C.ar    1  UNL1       -0.0564
      5 H           1.9195    3.3996   13.9362 H       1  UNL1        0.0621
      6 C           2.8813    4.1586   15.6741 C.ar    1  UNL1       -0.0611
      7 H           1.9507    4.3509   16.1876 H       1  UNL1        0.0618
      8 C           4.0850    4.4767   16.2786 C.ar    1  UNL1       -0.0564
      9 H           4.0762    4.9261   17.2590 H       1  UNL1        0.0621
     10 C           5.2878    4.2347   15.6428 C.ar    1  UNL1       -0.0200
     11 C           4.0775    2.8139   12.3193 C.3     1  UNL1       -0.0196
     12 H           4.9207    2.1004   12.2718 H       1  UNL1        0.0344
     13 C           2.7979    2.0907   11.9045 C.3     1  UNL1       -0.0586
     14 H           2.5249    1.3374   12.6392 H       1  UNL1        0.0235
     15 H           2.9382    1.5990   10.9434 H       1  UNL1        0.0235
     16 H           1.9731    2.7916   11.7987 H       1  UNL1        0.0235
     17 C           4.3708    3.9636   11.3432 C.3     1  UNL1       -0.0586
     18 H           3.5905    4.7196   11.4151 H       1  UNL1        0.0235
     19 H           5.3306    4.4360   11.5821 H       1  UNL1        0.0235
     20 H           4.4071    3.6023   10.3164 H       1  UNL1        0.0235
     21 C           6.6177    4.6278   16.2325 C.3     1  UNL1       -0.0196
     22 H           7.3234    3.8300   15.9805 H       1  UNL1        0.0344
     23 C           7.1068    5.9135   15.5526 C.3     1  UNL1       -0.0586
     24 H           8.0439    6.2351   16.0016 H       1  UNL1        0.0235
     25 H           7.2683    5.7313   14.4883 H       1  UNL1        0.0235
     26 H           6.3718    6.7082   15.6704 H       1  UNL1        0.0235
     27 C           6.6041    4.8041   17.7481 C.3     1  UNL1       -0.0586
     28 H           7.6268    4.8901   18.1100 H       1  UNL1        0.0235
     29 H           6.0659    5.7049   18.0356 H       1  UNL1        0.0235
     30 H           6.1411    3.9471   18.2297 H       1  UNL1        0.0235
@<TRIPOS>BOND
     1    20    17    1
     2    15    13    1
     3    17    18    1
     4    17    19    1
     5    17    11    1
     6    16    13    1
     7    13    11    1
     8    13    14    1
     9    12    11    1
    10    11     3    1
    11     1     2    1
    12     3     2   ar
    13     3     4   ar
    14     5     4    1
    15     2    10   ar
    16     4     6   ar
    17    25    23    1
    18    23    26    1
    19    23    24    1
    20    23    21    1
    21    10    21    1
    22    10     8   ar
    23     6     7    1
    24     6     8   ar
    25    22    21    1
    26    21    27    1
    27     8     9    1
    28    27    29    1
    29    27    28    1
    30    27    30    1
