@<TRIPOS>MOLECULE
1
 30 30 0 0 0
SMALL
GASTEIGER

@<TRIPOS>ATOM
      1 N          -7.6424    8.8602   -4.7659 N.pl3   1  UNL1       -0.1288
      2 C          -8.0253   10.0995   -5.1505 C.ar    1  UNL1        0.0792
      3 C          -9.2713   10.6446   -4.7468 C.ar    1  UNL1       -0.0200
      4 C          -9.5899   11.9481   -5.0837 C.ar    1  UNL1       -0.0564
      5 H         -10.5281   12.3668   -4.7552 H       1  UNL1        0.0621
      6 C          -8.7295   12.7267   -5.8353 C.ar    1  UNL1       -0.0611
      7 H          -8.9915   13.7442   -6.0830 H       1  UNL1        0.0618
      8 C          -7.5374   12.1855   -6.2774 C.ar    1  UNL1       -0.0564
      9 H          -6.8772   12.7895   -6.8807 H       1  UNL1        0.0621
     10 C          -7.1695   10.8894   -5.9587 C.ar    1  UNL1       -0.0200
     11 C         -10.2370    9.8103   -3.9408 C.3     1  UNL1       -0.0196
     12 H          -9.9533    8.7608   -4.0810 H       1  UNL1        0.0344
     13 C         -11.6867    9.9826   -4.3999 C.3     1  UNL1       -0.0586
     14 H         -11.7588    9.9137   -5.4820 H       1  UNL1        0.0235
     15 H         -12.0889   10.9434   -4.0888 H       1  UNL1        0.0235
     16 H         -12.3058    9.2041   -3.9604 H       1  UNL1        0.0235
     17 C         -10.1142   10.1659   -2.4552 C.3     1  UNL1       -0.0586
     18 H          -9.1017    9.9800   -2.1021 H       1  UNL1        0.0235
     19 H         -10.8092    9.5716   -1.8655 H       1  UNL1        0.0235
     20 H         -10.3441   11.2183   -2.3012 H       1  UNL1        0.0235
     21 C          -5.8627   10.3387   -6.4746 C.3     1  UNL1       -0.0196
     22 H          -5.8008    9.2812   -6.1817 H       1  UNL1        0.0344
     23 C          -5.8089   10.4099   -8.0024 C.3     1  UNL1       -0.0586
     24 H          -6.6663    9.8994   -8.4326 H       1  UNL1        0.0235
     25 H          -4.9078    9.9246   -8.3686 H       1  UNL1        0.0235
     26 H          -5.8064   11.4406   -8.3482 H       1  UNL1        0.0235
     27 C          -4.6862   11.1008   -5.8572 C.3     1  UNL1       -0.0586
     28 H          -4.7538   11.0897   -4.7718 H       1  UNL1        0.0235
     29 H          -4.6853   12.1367   -6.1888 H       1  UNL1        0.0235
     30 H          -3.7422   10.6487   -6.1541 H       1  UNL1        0.0235
@<TRIPOS>BOND
     1    24    23    1
     2    25    23    1
     3    26    23    1
     4    23    21    1
     5     9     8    1
     6    21    22    1
     7    21    10    1
     8    21    27    1
     9     8    10   ar
    10     8     6   ar
    11    29    27    1
    12    30    27    1
    13     7     6    1
    14    10     2   ar
    15    27    28    1
    16     6     4   ar
    17    14    13    1
    18     2     1    1
    19     2     3   ar
    20     4     5    1
    21     4     3   ar
    22     3    11    1
    23    13    15    1
    24    13    16    1
    25    13    11    1
    26    12    11    1
    27    11    17    1
    28    17    20    1
    29    17    18    1
    30    17    19    1
