@<TRIPOS>MOLECULE
1
 12 12 0 0 0
SMALL
GASTEIGER

@<TRIPOS>ATOM
      1 N           2.5437    3.3796    4.4260 N.pl3   1  UNL1       -0.1294
      2 C           3.6714    2.7098    4.1107 C.ar    1  UNL1        0.0724
      3 C           3.6726    1.9631    2.9165 C.ar    1  UNL1       -0.0372
      4 C           4.7944    1.2642    2.5318 C.ar    1  UNL1       -0.0599
      5 C           5.9387    1.2866    3.3178 C.ar    1  UNL1       -0.0616
      6 C           5.9488    2.0155    4.4960 C.ar    1  UNL1       -0.0599
      7 C           4.8327    2.7219    4.8966 C.ar    1  UNL1       -0.0372
      8 H           2.7614    1.9670    2.3243 H       1  UNL1        0.0637
      9 H           4.7829    0.6959    1.6129 H       1  UNL1        0.0618
     10 H           6.8166    0.7382    3.0116 H       1  UNL1        0.0618
     11 H           6.8383    2.0337    5.1095 H       1  UNL1        0.0618
     12 H           4.8340    3.2935    5.8141 H       1  UNL1        0.0637
@<TRIPOS>BOND
     1     9     4    1
     2     8     3    1
     3     4     3   ar
     4     4     5   ar
     5     3     2   ar
     6    10     5    1
     7     5     6   ar
     8     2     1    1
     9     2     7   ar
    10     6     7   ar
    11     6    11    1
    12     7    12    1
