@<TRIPOS>MOLECULE
1
 12 12 0 0 0
SMALL
GASTEIGER

@<TRIPOS>ATOM
      1 N          -4.8859    2.2329   -0.9017 N.pl3   1  UNL1       -0.1294
      2 C          -5.8191    2.3758   -1.8447 C.ar    1  UNL1        0.0724
      3 C          -6.6009    1.2549   -2.2213 C.ar    1  UNL1       -0.0372
      4 C          -7.5935    1.3664   -3.1677 C.ar    1  UNL1       -0.0599
      5 C          -7.8530    2.5854   -3.7797 C.ar    1  UNL1       -0.0616
      6 C          -7.0914    3.6928   -3.4369 C.ar    1  UNL1       -0.0599
      7 C          -6.0912    3.6002   -2.4937 C.ar    1  UNL1       -0.0372
      8 H          -6.3820    0.3012   -1.7495 H       1  UNL1        0.0637
      9 H          -8.1751    0.4949   -3.4365 H       1  UNL1        0.0618
     10 H          -8.6329    2.6673   -4.5216 H       1  UNL1        0.0618
     11 H          -7.2818    4.6428   -3.9174 H       1  UNL1        0.0618
     12 H          -5.4918    4.4619   -2.2368 H       1  UNL1        0.0637
@<TRIPOS>BOND
     1    10     5    1
     2    11     6    1
     3     5     6   ar
     4     5     4   ar
     5     6     7   ar
     6     9     4    1
     7     4     3   ar
     8     7    12    1
     9     7     2   ar
    10     3     2   ar
    11     3     8    1
    12     2     1    1
