@<TRIPOS>MOLECULE
1
 14 13 0 0 0
SMALL
GASTEIGER

@<TRIPOS>ATOM
      1 N           4.0565    2.3694   17.7673 N.3     1  UNL1       -0.1371
      2 C           4.2793    1.2911   18.6557 C.3     1  UNL1        0.0466
      3 C           5.5318    1.5577   19.5124 C.3     1  UNL1       -0.0443
      4 H           6.4024    1.6463   18.8684 H       1  UNL1        0.0248
      5 H           5.6904    0.7416   20.2133 H       1  UNL1        0.0248
      6 H           5.4166    2.4840   20.0703 H       1  UNL1        0.0248
      7 C           4.4982   -0.0122   17.8627 C.3     1  UNL1       -0.0443
      8 H           5.3681    0.0894   17.2177 H       1  UNL1        0.0248
      9 H           3.6197   -0.2287   17.2590 H       1  UNL1        0.0248
     10 H           4.6647   -0.8394   18.5484 H       1  UNL1        0.0248
     11 C           3.0591    1.1030   19.5772 C.3     1  UNL1       -0.0443
     12 H           2.1888    0.8415   18.9813 H       1  UNL1        0.0248
     13 H           2.8483    2.0250   20.1143 H       1  UNL1        0.0248
     14 H           3.2472    0.3096   20.2967 H       1  UNL1        0.0248
@<TRIPOS>BOND
     1     8     7    1
     2     9     7    1
     3     1     2    1
     4     7    10    1
     5     7     2    1
     6     2     3    1
     7     2    11    1
     8     4     3    1
     9    12    11    1
    10     3     6    1
    11     3     5    1
    12    11    13    1
    13    11    14    1
