@<TRIPOS>MOLECULE
1
 14 13 0 0 0
SMALL
GASTEIGER

@<TRIPOS>ATOM
      1 N           2.3866    5.9400    8.4200 N.3     1  UNL1       -0.1371
      2 C           3.3888    6.7329    7.8309 C.3     1  UNL1        0.0466
      3 C           4.0286    7.6730    8.8678 C.3     1  UNL1       -0.0443
      4 H           3.2657    8.3086    9.3099 H       1  UNL1        0.0248
      5 H           4.7857    8.2956    8.3971 H       1  UNL1        0.0248
      6 H           4.4875    7.0886    9.6596 H       1  UNL1        0.0248
      7 C           4.4736    5.8019    7.2539 C.3     1  UNL1       -0.0443
      8 H           4.8615    5.1658    8.0471 H       1  UNL1        0.0248
      9 H           5.2892    6.3831    6.8312 H       1  UNL1        0.0248
     10 H           4.0482    5.1702    6.4758 H       1  UNL1        0.0248
     11 C           2.7754    7.5774    6.6954 C.3     1  UNL1       -0.0443
     12 H           2.0020    8.2250    7.1045 H       1  UNL1        0.0248
     13 H           2.3272    6.9279    5.9460 H       1  UNL1        0.0248
     14 H           3.5381    8.1911    6.2227 H       1  UNL1        0.0248
@<TRIPOS>BOND
     1    13    11    1
     2    14    11    1
     3    10     7    1
     4    11    12    1
     5    11     2    1
     6     9     7    1
     7     7     2    1
     8     7     8    1
     9     2     1    1
    10     2     3    1
    11     5     3    1
    12     3     4    1
    13     3     6    1
