@<TRIPOS>MOLECULE
1
 15 14 0 0 0
SMALL
GASTEIGER

@<TRIPOS>ATOM
      1 N           1.9377    5.4639    5.4853 N.1     1  UNL1       -0.1960
      2 C           2.7201    4.6365    5.3422 C.1     1  UNL1        0.0684
      3 C           3.7039    3.5968    5.1584 C.3     1  UNL1        0.0490
      4 C           2.9758    2.3104    4.7439 C.3     1  UNL1       -0.0472
      5 H           2.2792    1.9935    5.5163 H       1  UNL1        0.0245
      6 H           3.7039    1.5183    4.5856 H       1  UNL1        0.0245
      7 H           2.4218    2.4658    3.8214 H       1  UNL1        0.0245
      8 C           4.4484    3.3962    6.4859 C.3     1  UNL1       -0.0472
      9 H           4.9388    4.3162    6.7964 H       1  UNL1        0.0245
     10 H           5.2038    2.6235    6.3643 H       1  UNL1        0.0245
     11 H           3.7613    3.0871    7.2707 H       1  UNL1        0.0245
     12 C           4.6740    4.0398    4.0540 C.3     1  UNL1       -0.0472
     13 H           4.1385    4.2318    3.1270 H       1  UNL1        0.0245
     14 H           5.4049    3.2541    3.8779 H       1  UNL1        0.0245
     15 H           5.2041    4.9444    4.3437 H       1  UNL1        0.0245
@<TRIPOS>BOND
     1    13    12    1
     2     7     4    1
     3    14    12    1
     4    12    15    1
     5    12     3    1
     6     6     4    1
     7     4     3    1
     8     4     5    1
     9     3     2    1
    10     3     8    1
    11     2     1    3
    12    10     8    1
    13     8     9    1
    14     8    11    1
