@<TRIPOS>MOLECULE
2
 18 17 0 0 0
SMALL
GASTEIGER

@<TRIPOS>ATOM
      1 SI          5.1424    2.5943    0.1048 Si      1  UNL1        0.0000
      2 N           5.4084    1.6405    3.4109 N.3     1  UNL1        0.0000
      3 N           4.5928    1.5421    2.5573 N.3     1  UNL1        0.0000
      4 C           4.0448    2.5415    1.7113 C.3     1  UNL1        0.0000
      5 H           4.0330    3.5130    2.2166 H       1  UNL1        0.0000
      6 H           3.0236    2.2529    1.4694 H       1  UNL1        0.0000
      7 C           6.9425    2.8293    0.6616 C.3     1  UNL1        0.0000
      8 H           7.6314    2.7608   -0.1745 H       1  UNL1        0.0000
      9 H           7.2246    2.0681    1.3878 H       1  UNL1        0.0000
     10 H           7.0962    3.7958    1.1324 H       1  UNL1        0.0000
     11 C           4.5159    4.0486   -0.9583 C.3     1  UNL1        0.0000
     12 H           4.6333    4.9989   -0.4463 H       1  UNL1        0.0000
     13 H           3.4660    3.9385   -1.2121 H       1  UNL1        0.0000
     14 H           5.0717    4.1090   -1.8882 H       1  UNL1        0.0000
     15 C           4.9014    0.9232   -0.7763 C.3     1  UNL1        0.0000
     16 H           5.5310    0.8509   -1.6577 H       1  UNL1        0.0000
     17 H           3.8736    0.7780   -1.0962 H       1  UNL1        0.0000
     18 H           5.1620    0.0998   -0.1179 H       1  UNL1        0.0000
@<TRIPOS>BOND
     1    14    11    1
     2    16    15    1
     3    13    11    1
     4    17    15    1
     5    11    12    1
     6    11     1    1
     7    15    18    1
     8    15     1    1
     9     8     7    1
    10     1     7    1
    11     1     4    1
    12     7    10    1
    13     7     9    1
    14     6     4    1
    15     4     5    1
    16     4     3    1
    17     3     2    1
