@<TRIPOS>MOLECULE
1
 26 28 0 0 0
SMALL
GASTEIGER

@<TRIPOS>ATOM
      1 N           6.1276    6.1276    6.1275 N.3     1  UNL1       -0.1362
      2 C           5.3221    5.3222    5.3221 C.3     1  UNL1        0.0557
      3 C           4.0956    4.8275    6.1182 C.3     1  UNL1       -0.0288
      4 C           3.2179    3.9492    5.2293 C.3     1  UNL1       -0.0388
      5 C           4.0212    2.7393    4.7534 C.3     1  UNL1       -0.0472
      6 H           3.5417    5.6957    6.4790 H       1  UNL1        0.0287
      7 H           4.4437    4.2630    6.9854 H       1  UNL1        0.0287
      8 H           2.3509    3.6067    5.8055 H       1  UNL1        0.0302
      9 H           3.3929    2.0962    4.1331 H       1  UNL1        0.0271
     10 H           4.3559    2.1553    5.6129 H       1  UNL1        0.0271
     11 C           4.8274    6.1181    4.0955 C.3     1  UNL1       -0.0288
     12 C           6.1181    4.0956    4.8274 C.3     1  UNL1       -0.0288
     13 C           3.9491    5.2291    3.2180 C.3     1  UNL1       -0.0388
     14 C           5.2291    3.2179    3.9492 C.3     1  UNL1       -0.0388
     15 C           2.7393    4.7532    4.0213 C.3     1  UNL1       -0.0472
     16 C           4.7531    4.0211    2.7394 C.3     1  UNL1       -0.0472
     17 H           5.6955    6.4789    3.5416 H       1  UNL1        0.0287
     18 H           6.4790    3.5418    5.6956 H       1  UNL1        0.0287
     19 H           4.2628    6.9854    4.4436 H       1  UNL1        0.0287
     20 H           6.9853    4.4436    4.2628 H       1  UNL1        0.0287
     21 H           3.6065    5.8052    2.3509 H       1  UNL1        0.0302
     22 H           5.8052    2.3509    3.6067 H       1  UNL1        0.0302
     23 H           2.0962    4.1328    3.3931 H       1  UNL1        0.0271
     24 H           4.1327    3.3928    2.0964 H       1  UNL1        0.0271
     25 H           2.1552    5.6128    4.3560 H       1  UNL1        0.0271
     26 H           5.6126    4.3558    2.1552 H       1  UNL1        0.0271
@<TRIPOS>BOND
     1    24    16    1
     2    26    16    1
     3    21    13    1
     4    16    13    1
     5    16    14    1
     6    13    15    1
     7    13    11    1
     8    23    15    1
     9    17    11    1
    10    22    14    1
    11    14     5    1
    12    14    12    1
    13    15    25    1
    14    15     4    1
    15    11    19    1
    16    11     2    1
    17     9     5    1
    18    20    12    1
    19     5     4    1
    20     5    10    1
    21    12     2    1
    22    12    18    1
    23     4     8    1
    24     4     3    1
    25     2     3    1
    26     2     1    1
    27     3     6    1
    28     3     7    1
