@<TRIPOS>MOLECULE
1
 26 28 0 0 0
SMALL
GASTEIGER

@<TRIPOS>ATOM
      1 N           7.7097    3.5185    4.8044 N.3     1  UNL1       -0.1362
      2 C           7.4659    2.6035    5.8384 C.3     1  UNL1        0.0557
      3 C           6.1649    1.8098    5.5951 C.3     1  UNL1       -0.0288
      4 C           7.3268    3.3710    7.1700 C.3     1  UNL1       -0.0288
      5 C           8.6200    1.5932    5.9767 C.3     1  UNL1       -0.0288
      6 C           5.9054    0.8491    6.7537 C.3     1  UNL1       -0.0388
      7 C           5.7695    1.6335    8.0576 C.3     1  UNL1       -0.0472
      8 C           7.0634    2.4029    8.3200 C.3     1  UNL1       -0.0388
      9 C           8.2271    1.4202    8.4384 C.3     1  UNL1       -0.0472
     10 C           8.3570    0.6346    7.1350 C.3     1  UNL1       -0.0388
     11 C           7.0657   -0.1379    6.8700 C.3     1  UNL1       -0.0472
     12 H           6.2679    1.2509    4.6628 H       1  UNL1        0.0287
     13 H           5.3348    2.5133    5.4944 H       1  UNL1        0.0287
     14 H           6.5126    4.0924    7.0742 H       1  UNL1        0.0287
     15 H           8.2493    3.9293    7.3323 H       1  UNL1        0.0287
     16 H           9.5385    2.1566    6.1325 H       1  UNL1        0.0287
     17 H           8.7054    1.0393    5.0418 H       1  UNL1        0.0287
     18 H           4.9765    0.2973    6.5624 H       1  UNL1        0.0302
     19 H           4.9319    2.3308    7.9859 H       1  UNL1        0.0271
     20 H           5.5667    0.9483    8.8845 H       1  UNL1        0.0271
     21 H           6.9673    2.9684    9.2542 H       1  UNL1        0.0302
     22 H           9.1525    1.9650    8.6343 H       1  UNL1        0.0271
     23 H           8.0548    0.7350    9.2725 H       1  UNL1        0.0271
     24 H           9.1922   -0.0716    7.2173 H       1  UNL1        0.0302
     25 H           7.1604   -0.7085    5.9431 H       1  UNL1        0.0271
     26 H           6.8755   -0.8419    7.6839 H       1  UNL1        0.0271
@<TRIPOS>BOND
     1    12     3    1
     2     1     2    1
     3    17     5    1
     4    13     3    1
     5     3     2    1
     6     3     6    1
     7     2     5    1
     8     2     4    1
     9    25    11    1
    10     5    16    1
    11     5    10    1
    12    18     6    1
    13     6    11    1
    14     6     7    1
    15    11    10    1
    16    11    26    1
    17    14     4    1
    18    10    24    1
    19    10     9    1
    20     4    15    1
    21     4     8    1
    22    19     7    1
    23     7     8    1
    24     7    20    1
    25     8     9    1
    26     8    21    1
    27     9    22    1
    28     9    23    1
