@<TRIPOS>MOLECULE
1
 12 12 0 0 0
SMALL
GASTEIGER

@<TRIPOS>ATOM
      1 N           3.4787    3.8932    3.3167 N.pl3   1  UNL1       -0.1294
      2 C           3.2721    5.1769    3.0064 C.ar    1  UNL1        0.0724
      3 C           4.3092    6.0989    3.2498 C.ar    1  UNL1       -0.0372
      4 H           5.2245    5.7111    3.6814 H       1  UNL1        0.0637
      5 C           4.1441    7.4301    2.9403 C.ar    1  UNL1       -0.0599
      6 H           4.9470    8.1288    3.1299 H       1  UNL1        0.0618
      7 C           2.9543    7.8824    2.3841 C.ar    1  UNL1       -0.0616
      8 H           2.8305    8.9278    2.1433 H       1  UNL1        0.0618
      9 C           1.9269    6.9858    2.1391 C.ar    1  UNL1       -0.0599
     10 H           1.0001    7.3352    1.7059 H       1  UNL1        0.0618
     11 C           2.0754    5.6480    2.4442 C.ar    1  UNL1       -0.0372
     12 H           1.2766    4.9431    2.2555 H       1  UNL1        0.0637
@<TRIPOS>BOND
     1    10     9    1
     2     9     7   ar
     3     9    11   ar
     4     8     7    1
     5    12    11    1
     6     7     5   ar
     7    11     2   ar
     8     5     6    1
     9     5     3   ar
    10     2     3   ar
    11     2     1    1
    12     3     4    1
