@<TRIPOS>MOLECULE
1
 12 12 0 0 0
SMALL
GASTEIGER

@<TRIPOS>ATOM
      1 N          11.0015    2.5425   -2.2675 N.pl3   1  UNL1       -0.1294
      2 C          10.7289    1.7915   -1.1985 C.ar    1  UNL1        0.0724
      3 C          11.7279    1.2073   -0.4030 C.ar    1  UNL1       -0.0372
      4 H          12.7635    1.3763   -0.6655 H       1  UNL1        0.0637
      5 C          11.3892    0.4336    0.6882 C.ar    1  UNL1       -0.0599
      6 H          12.1687   -0.0102    1.2916 H       1  UNL1        0.0618
      7 C          10.0595    0.2223    1.0166 C.ar    1  UNL1       -0.0616
      8 H           9.8020   -0.3830    1.8728 H       1  UNL1        0.0618
      9 C           9.0602    0.7929    0.2388 C.ar    1  UNL1       -0.0599
     10 H           8.0228    0.6276    0.4937 H       1  UNL1        0.0618
     11 C           9.3812    1.5667   -0.8537 C.ar    1  UNL1       -0.0372
     12 H           8.6266    2.0254   -1.4815 H       1  UNL1        0.0637
@<TRIPOS>BOND
     1     1     2    1
     2    12    11    1
     3     2    11   ar
     4     2     3   ar
     5    11     9   ar
     6     4     3    1
     7     3     5   ar
     8     9    10    1
     9     9     7   ar
    10     5     7   ar
    11     5     6    1
    12     7     8    1
