@<TRIPOS>MOLECULE
1
 30 30 0 0 0
SMALL
GASTEIGER

@<TRIPOS>ATOM
      1 N           4.1207    4.1517    2.8626 N.pl3   1  UNL1       -0.1288
      2 C           4.5582    5.4057    2.6037 C.ar    1  UNL1        0.0792
      3 C           5.0983    6.2134    3.6369 C.ar    1  UNL1       -0.0200
      4 C           5.5398    7.4927    3.3600 C.ar    1  UNL1       -0.0564
      5 H           5.9363    8.1070    4.1547 H       1  UNL1        0.0621
      6 C           5.4892    8.0037    2.0756 C.ar    1  UNL1       -0.0611
      7 H           5.8484    9.0012    1.8703 H       1  UNL1        0.0618
      8 C           4.9713    7.2241    1.0578 C.ar    1  UNL1       -0.0564
      9 H           4.9423    7.6261    0.0554 H       1  UNL1        0.0621
     10 C           4.4959    5.9461    1.2921 C.ar    1  UNL1       -0.0200
     11 C           5.1436    5.6517    5.0383 C.3     1  UNL1       -0.0196
     12 H           5.1226    4.5539    4.9373 H       1  UNL1        0.0344
     13 C           3.8937    6.1003    5.8027 C.3     1  UNL1       -0.0586
     14 H           3.8415    7.1874    5.8262 H       1  UNL1        0.0235
     15 H           3.9119    5.7333    6.8272 H       1  UNL1        0.0235
     16 H           2.9989    5.7218    5.3129 H       1  UNL1        0.0235
     17 C           6.4049    6.0480    5.8049 C.3     1  UNL1       -0.0586
     18 H           7.2940    5.8519    5.2097 H       1  UNL1        0.0235
     19 H           6.4755    5.4814    6.7315 H       1  UNL1        0.0235
     20 H           6.3902    7.1043    6.0625 H       1  UNL1        0.0235
     21 C           3.9124    5.1365    0.1574 C.3     1  UNL1       -0.0196
     22 H           3.4798    4.2125    0.5946 H       1  UNL1        0.0344
     23 C           2.8146    5.9289   -0.5580 C.3     1  UNL1       -0.0586
     24 H           2.0698    6.2748    0.1535 H       1  UNL1        0.0235
     25 H           2.3210    5.3155   -1.3069 H       1  UNL1        0.0235
     26 H           3.2357    6.7961   -1.0609 H       1  UNL1        0.0235
     27 C           4.9974    4.7116   -0.8370 C.3     1  UNL1       -0.0586
     28 H           5.5630    5.5742   -1.1833 H       1  UNL1        0.0235
     29 H           4.5473    4.2290   -1.7023 H       1  UNL1        0.0235
     30 H           5.6802    4.0066   -0.3681 H       1  UNL1        0.0235
@<TRIPOS>BOND
     1    29    27    1
     2    25    23    1
     3    28    27    1
     4    26    23    1
     5    27    30    1
     6    27    21    1
     7    23    24    1
     8    23    21    1
     9     9     8    1
    10    21    22    1
    11    21    10    1
    12     8    10   ar
    13     8     6   ar
    14    10     2   ar
    15     7     6    1
    16     6     4   ar
    17     2     1    1
    18     2     3   ar
    19     4     3   ar
    20     4     5    1
    21     3    11    1
    22    12    11    1
    23    11    13    1
    24    11    17    1
    25    18    17    1
    26    16    13    1
    27    13    14    1
    28    13    15    1
    29    17    20    1
    30    17    19    1
