@<TRIPOS>MOLECULE
1
 30 30 0 0 0
SMALL
GASTEIGER

@<TRIPOS>ATOM
      1 N           5.2933    1.7728    1.5670 N.pl3   1  UNL1       -0.1288
      2 C           6.3640    1.7003    0.7414 C.ar    1  UNL1        0.0792
      3 C           7.5469    2.4463    0.9916 C.ar    1  UNL1       -0.0200
      4 C           8.6058    2.3546    0.1053 C.ar    1  UNL1       -0.0564
      5 H           9.4986    2.9356    0.2853 H       1  UNL1        0.0621
      6 C           8.5516    1.5446   -1.0134 C.ar    1  UNL1       -0.0611
      7 H           9.3898    1.4954   -1.6925 H       1  UNL1        0.0618
      8 C           7.4124    0.7975   -1.2555 C.ar    1  UNL1       -0.0564
      9 H           7.3760    0.1648   -2.1289 H       1  UNL1        0.0621
     10 C           6.3305    0.8553   -0.3996 C.ar    1  UNL1       -0.0200
     11 C           7.6655    3.3380    2.2065 C.3     1  UNL1       -0.0196
     12 H           6.7252    3.2403    2.7931 H       1  UNL1        0.0344
     13 C           7.8328    4.8044    1.7995 C.3     1  UNL1       -0.0586
     14 H           8.7531    4.9434    1.2364 H       1  UNL1        0.0235
     15 H           7.8697    5.4396    2.6816 H       1  UNL1        0.0235
     16 H           6.9973    5.1307    1.1897 H       1  UNL1        0.0235
     17 C           8.8552    2.9104    3.0710 C.3     1  UNL1       -0.0586
     18 H           8.7317    1.8898    3.4194 H       1  UNL1        0.0235
     19 H           8.9529    3.5659    3.9328 H       1  UNL1        0.0235
     20 H           9.7795    2.9693    2.5007 H       1  UNL1        0.0235
     21 C           5.0530    0.0963   -0.6670 C.3     1  UNL1       -0.0196
     22 H           4.6537   -0.2218    0.3081 H       1  UNL1        0.0344
     23 C           4.0510    1.0706   -1.2968 C.3     1  UNL1       -0.0586
     24 H           3.8031    1.8454   -0.5658 H       1  UNL1        0.0235
     25 H           3.1424    0.5553   -1.6020 H       1  UNL1        0.0235
     26 H           4.4912    1.5382   -2.1758 H       1  UNL1        0.0235
     27 C           5.2264   -1.1419   -1.5424 C.3     1  UNL1       -0.0586
     28 H           5.4489   -0.8660   -2.5706 H       1  UNL1        0.0235
     29 H           4.3059   -1.7233   -1.5432 H       1  UNL1        0.0235
     30 H           6.0295   -1.7713   -1.1659 H       1  UNL1        0.0235
@<TRIPOS>BOND
     1    28    27    1
     2    26    23    1
     3     9     8    1
     4     7     6    1
     5    25    23    1
     6    29    27    1
     7    27    30    1
     8    27    21    1
     9    23    21    1
    10    23    24    1
    11     8     6   ar
    12     8    10   ar
    13     6     4   ar
    14    21    10    1
    15    21    22    1
    16    10     2   ar
    17     4     5    1
    18     4     3   ar
    19     2     3   ar
    20     2     1    1
    21     3    11    1
    22    16    13    1
    23    14    13    1
    24    13    11    1
    25    13    15    1
    26    11    12    1
    27    11    17    1
    28    20    17    1
    29    17    18    1
    30    17    19    1
