@<TRIPOS>MOLECULE
2
 15 14 0 0 0
SMALL
GASTEIGER

@<TRIPOS>ATOM
      1 SI          1.2983   12.1457    3.1188 Si      1  UNL1        0.0000
      2 N           3.2908   11.2311    4.8180 N.3     1  UNL1        0.0000
      3 N           2.7482   11.6160    3.7999 N.3     1  UNL1        0.0000
      4 C          -0.0517   10.7840    3.0272 C.3     1  UNL1        0.0000
      5 H           0.3607    9.8661    2.6187 H       1  UNL1        0.0000
      6 H          -0.8828   11.0825    2.3937 H       1  UNL1        0.0000
      7 H          -0.4512   10.5495    4.0095 H       1  UNL1        0.0000
      8 C           1.7461   12.6344    1.3292 C.3     1  UNL1        0.0000
      9 H           2.4826   13.4310    1.3099 H       1  UNL1        0.0000
     10 H           0.8699   12.9809    0.7886 H       1  UNL1        0.0000
     11 H           2.1605   11.7939    0.7819 H       1  UNL1        0.0000
     12 C           0.5008   13.6729    3.9620 C.3     1  UNL1        0.0000
     13 H           0.0703   13.4144    4.9245 H       1  UNL1        0.0000
     14 H          -0.2857   14.1102    3.3521 H       1  UNL1        0.0000
     15 H           1.2473   14.4422    4.1374 H       1  UNL1        0.0000
@<TRIPOS>BOND
     1    11     8    1
     2    10     8    1
     3     9     8    1
     4     8     1    1
     5     6     4    1
     6     5     4    1
     7     4     1    1
     8     4     7    1
     9     1     3    1
    10     1    12    1
    11    14    12    1
    12     3     2    1
    13    12    15    1
    14    12    13    1
