@<TRIPOS>MOLECULE
4
 26 26 0 0 0
SMALL
GASTEIGER

@<TRIPOS>ATOM
      1 SI          0.6365   11.1130    7.6701 Si      1  UNL1        0.0000
      2 SI          3.2694   12.1192    6.6570 Si      1  UNL1        0.0000
      3 N           1.9045   11.0099    6.4336 N.3     1  UNL1        0.0000
      4 N           1.8665   10.1287    5.4602 N.3     1  UNL1        0.0000
      5 C           3.4124   13.3711    5.2320 C.3     1  UNL1        0.0000
      6 H           3.8470   12.9045    4.3563 H       1  UNL1        0.0000
      7 H           4.0502   14.2028    5.5156 H       1  UNL1        0.0000
      8 H           2.4450   13.7745    4.9482 H       1  UNL1        0.0000
      9 C           0.1231    9.3937    8.2819 C.3     1  UNL1        0.0000
     10 H           0.1439    8.6784    7.4666 H       1  UNL1        0.0000
     11 H          -0.8852    9.4121    8.6809 H       1  UNL1        0.0000
     12 H           0.7846    9.0334    9.0635 H       1  UNL1        0.0000
     13 C          -0.8041   12.1553    6.9842 C.3     1  UNL1        0.0000
     14 H          -0.4903   13.1779    6.7931 H       1  UNL1        0.0000
     15 H          -1.6293   12.1881    7.6889 H       1  UNL1        0.0000
     16 H          -1.1787   11.7464    6.0513 H       1  UNL1        0.0000
     17 C           4.8651   11.1072    6.8648 C.3     1  UNL1        0.0000
     18 H           4.8653   10.5316    7.7857 H       1  UNL1        0.0000
     19 H           5.7451   11.7428    6.8658 H       1  UNL1        0.0000
     20 H           4.9520   10.4081    6.0380 H       1  UNL1        0.0000
     21 C           1.6576   12.0688    8.9654 C.3     1  UNL1        0.0000
     22 H           1.0306   12.6435    9.6460 H       1  UNL1        0.0000
     23 H           2.2157   11.3628    9.5818 H       1  UNL1        0.0000
     24 C           2.6440   12.9823    8.2362 C.3     1  UNL1        0.0000
     25 H           3.4633   13.2709    8.8934 H       1  UNL1        0.0000
     26 H           2.1370   13.9064    7.9577 H       1  UNL1        0.0000
@<TRIPOS>BOND
     1     6     5    1
     2     8     5    1
     3     5     7    1
     4     5     2    1
     5     4     3    1
     6    20    17    1
     7    16    13    1
     8     3     2    1
     9     3     1    1
    10     2    17    1
    11     2    24    1
    12    14    13    1
    13    17    19    1
    14    17    18    1
    15    13     1    1
    16    13    15    1
    17    10     9    1
    18     1     9    1
    19     1    21    1
    20    26    24    1
    21    24    25    1
    22    24    21    1
    23     9    11    1
    24     9    12    1
    25    21    23    1
    26    21    22    1
