@<TRIPOS>MOLECULE
2
 16 15 0 0 0
SMALL
GASTEIGER

@<TRIPOS>ATOM
      1 SI          0.6265   12.0835    4.6309 Si      1  UNL1        0.0000
      2 N           2.1246   15.0820    7.0422 N.3     1  UNL1        0.0000
      3 N           1.7712   14.2380    6.2825 N.3     1  UNL1        0.0000
      4 C           1.4963   13.4879    5.3977 C.3     1  UNL1        0.0000
      5 C          -0.9793   11.6108    5.5705 C.3     1  UNL1        0.0000
      6 H          -0.7666   11.2598    6.5772 H       1  UNL1        0.0000
      7 H          -1.5179   10.8172    5.0605 H       1  UNL1        0.0000
      8 H          -1.6522   12.4596    5.6508 H       1  UNL1        0.0000
      9 C           0.1538   12.5458    2.8436 C.3     1  UNL1        0.0000
     10 H          -0.5244   13.3932    2.8210 H       1  UNL1        0.0000
     11 H          -0.3320   11.7211    2.3297 H       1  UNL1        0.0000
     12 H           1.0337   12.8171    2.2693 H       1  UNL1        0.0000
     13 C           1.7400   10.5306    4.6026 C.3     1  UNL1        0.0000
     14 H           2.6495   10.7163    4.0408 H       1  UNL1        0.0000
     15 H           1.2364    9.6874    4.1382 H       1  UNL1        0.0000
     16 H           2.0332   10.2259    5.6033 H       1  UNL1        0.0000
@<TRIPOS>BOND
     1    12     9    1
     2    11     9    1
     3    10     9    1
     4     9     1    1
     5    14    13    1
     6    15    13    1
     7    13     1    1
     8    13    16    1
     9     1     4    1
    10     1     5    1
    11     7     5    1
    12     4     3    1
    13     5     8    1
    14     5     6    1
    15     3     2    1
