@<TRIPOS>MOLECULE
1
 12 12 0 0 0
SMALL
GASTEIGER

@<TRIPOS>ATOM
      1 N           5.9244    3.0411    8.7483 N.pl3   1  UNL1       -0.1294
      2 C           5.0435    3.3172    9.7211 C.ar    1  UNL1        0.0724
      3 C           4.0720    2.3675   10.1101 C.ar    1  UNL1       -0.0372
      4 C           3.1599    2.6498   11.1023 C.ar    1  UNL1       -0.0599
      5 C           3.1740    3.8765   11.7500 C.ar    1  UNL1       -0.0616
      6 C           4.1229    4.8215   11.3900 C.ar    1  UNL1       -0.0599
      7 C           5.0422    4.5557   10.3991 C.ar    1  UNL1       -0.0372
      8 H           4.0593    1.4120    9.6016 H       1  UNL1        0.0637
      9 H           2.4252    1.9056   11.3782 H       1  UNL1        0.0618
     10 H           4.1436    5.7793   11.8921 H       1  UNL1        0.0618
     11 H           5.7896    5.2881   10.1289 H       1  UNL1        0.0637
     12 H           2.4556    4.0920   12.5268 H       1  UNL1        0.0618
@<TRIPOS>BOND
     1     1     2    1
     2     8     3    1
     3     2     3   ar
     4     2     7   ar
     5     3     4   ar
     6    11     7    1
     7     7     6   ar
     8     4     9    1
     9     4     5   ar
    10     6     5   ar
    11     6    10    1
    12     5    12    1
