@<TRIPOS>MOLECULE
1
 30 30 0 0 0
SMALL
GASTEIGER

@<TRIPOS>ATOM
      1 N           4.9276    7.1959    4.0773 N.pl3   1  UNL1       -0.1288
      2 C           5.8778    6.6862    3.2866 C.ar    1  UNL1        0.0792
      3 C           5.9325    5.2964    2.9851 C.ar    1  UNL1       -0.0200
      4 C           6.8672    4.8309    2.0779 C.ar    1  UNL1       -0.0564
      5 H           6.8921    3.7807    1.8302 H       1  UNL1        0.0621
      6 C           7.7733    5.6816    1.4714 C.ar    1  UNL1       -0.0611
      7 H           8.4921    5.2971    0.7630 H       1  UNL1        0.0618
      8 C           7.7517    7.0313    1.7792 C.ar    1  UNL1       -0.0564
      9 H           8.4636    7.6879    1.3029 H       1  UNL1        0.0621
     10 C           6.8322    7.5477    2.6717 C.ar    1  UNL1       -0.0200
     11 C           4.9630    4.3406    3.6396 C.3     1  UNL1       -0.0196
     12 H           4.5548    4.8513    4.5189 H       1  UNL1        0.0344
     13 C           5.6458    3.0413    4.0780 C.3     1  UNL1       -0.0586
     14 H           4.9851    2.4766    4.7339 H       1  UNL1        0.0235
     15 H           6.5744    3.2504    4.6039 H       1  UNL1        0.0235
     16 H           5.8727    2.4115    3.2207 H       1  UNL1        0.0235
     17 C           3.7951    4.0111    2.7067 C.3     1  UNL1       -0.0586
     18 H           3.2385    4.9146    2.4801 H       1  UNL1        0.0235
     19 H           3.1276    3.2937    3.1821 H       1  UNL1        0.0235
     20 H           4.1599    3.5789    1.7769 H       1  UNL1        0.0235
     21 C           6.7691    9.0277    2.9693 C.3     1  UNL1       -0.0196
     22 H           6.3793    9.1357    3.9876 H       1  UNL1        0.0344
     23 C           8.1222    9.7343    2.8941 C.3     1  UNL1       -0.0586
     24 H           8.8725    9.1921    3.4638 H       1  UNL1        0.0235
     25 H           8.0309   10.7371    3.3076 H       1  UNL1        0.0235
     26 H           8.4641    9.8282    1.8661 H       1  UNL1        0.0235
     27 C           5.7683    9.6967    2.0199 C.3     1  UNL1       -0.0586
     28 H           4.7765    9.2695    2.1763 H       1  UNL1        0.0235
     29 H           6.0637    9.5359    0.9847 H       1  UNL1        0.0235
     30 H           5.7290   10.7685    2.2109 H       1  UNL1        0.0235
@<TRIPOS>BOND
     1     7     6    1
     2    29    27    1
     3     9     8    1
     4     6     8   ar
     5     6     4   ar
     6    20    17    1
     7     8    10   ar
     8     5     4    1
     9    26    23    1
    10    27    28    1
    11    27    30    1
    12    27    21    1
    13     4     3   ar
    14    18    17    1
    15    10    21    1
    16    10     2   ar
    17    17    19    1
    18    17    11    1
    19    23    21    1
    20    23    25    1
    21    23    24    1
    22    21    22    1
    23     3     2   ar
    24     3    11    1
    25    16    13    1
    26     2     1    1
    27    11    13    1
    28    11    12    1
    29    13    15    1
    30    13    14    1
