@<TRIPOS>MOLECULE
1
 14 13 0 0 0
SMALL
GASTEIGER

@<TRIPOS>ATOM
      1 N           0.5132    3.6573    8.8139 N.3     1  UNL1       -0.1371
      2 C           0.0750    2.3250    8.9577 C.3     1  UNL1        0.0466
      3 C          -1.4677    2.2407    8.8482 C.3     1  UNL1       -0.0443
      4 C           0.6987    1.4493    7.8416 C.3     1  UNL1       -0.0443
      5 C           0.5051    1.7411   10.3238 C.3     1  UNL1       -0.0443
      6 H          -1.8059    1.2146    8.9747 H       1  UNL1        0.0248
      7 H          -1.9240    2.8615    9.6167 H       1  UNL1        0.0248
      8 H          -1.7916    2.5986    7.8716 H       1  UNL1        0.0248
      9 H           0.4018    0.4070    7.9447 H       1  UNL1        0.0248
     10 H           1.7838    1.5264    7.9084 H       1  UNL1        0.0248
     11 H           0.3818    1.8161    6.8655 H       1  UNL1        0.0248
     12 H           0.1855    0.7047   10.4169 H       1  UNL1        0.0248
     13 H           0.0640    2.3222   11.1305 H       1  UNL1        0.0248
     14 H           1.5886    1.7955   10.4095 H       1  UNL1        0.0248
@<TRIPOS>BOND
     1    11     4    1
     2     4    10    1
     3     4     9    1
     4     4     2    1
     5     8     3    1
     6     1     2    1
     7     3     2    1
     8     3     6    1
     9     3     7    1
    10     2     5    1
    11     5    14    1
    12     5    12    1
    13     5    13    1
