@<TRIPOS>MOLECULE
1
 14 13 0 0 0
SMALL
GASTEIGER

@<TRIPOS>ATOM
      1 N           2.2714   11.3405    3.4038 N.3     1  UNL1        0.0000
      2 SI          2.4457   13.0125    3.0517 Si      1  UNL1        0.0000
      3 C           4.2875   13.5458    3.0219 C.3     1  UNL1        0.0000
      4 H           4.7654   13.3860    3.9828 H       1  UNL1        0.0000
      5 H           4.3782   14.6007    2.7830 H       1  UNL1        0.0000
      6 H           4.8456   12.9886    2.2771 H       1  UNL1        0.0000
      7 C           1.7033   13.4702    1.3422 C.3     1  UNL1        0.0000
      8 H           2.1633   12.9012    0.5409 H       1  UNL1        0.0000
      9 H           1.8614   14.5226    1.1285 H       1  UNL1        0.0000
     10 H           0.6355   13.2848    1.3091 H       1  UNL1        0.0000
     11 C           1.5411   14.0667    4.3743 C.3     1  UNL1        0.0000
     12 H           0.5070   13.7586    4.4855 H       1  UNL1        0.0000
     13 H           1.5472   15.1173    4.1029 H       1  UNL1        0.0000
     14 H           2.0177   13.9735    5.3437 H       1  UNL1        0.0000
@<TRIPOS>BOND
     1     8     7    1
     2     9     7    1
     3    10     7    1
     4     7     2    1
     5     6     3    1
     6     5     3    1
     7     3     2    1
     8     3     4    1
     9     2     1    1
    10     2    11    1
    11    13    11    1
    12    11    12    1
    13    11    14    1
