@<TRIPOS>MOLECULE
2
 14 13 0 0 0
SMALL
GASTEIGER

@<TRIPOS>ATOM
      1 SI         -0.5163    5.2237    9.8344 Si      1  UNL1        0.0000
      2 N          -1.1699    6.7192   10.2751 N.3     1  UNL1        0.0000
      3 C          -1.4169    3.6183   10.4066 C.3     1  UNL1        0.0000
      4 H          -1.5121    3.5516   11.4844 H       1  UNL1        0.0000
      5 H          -0.8437    2.7549   10.0800 H       1  UNL1        0.0000
      6 H          -2.4089    3.5232    9.9755 H       1  UNL1        0.0000
      7 C           1.2498    4.9425   10.5551 C.3     1  UNL1        0.0000
      8 H           1.8906    5.8150   10.4792 H       1  UNL1        0.0000
      9 H           1.7490    4.1213   10.0500 H       1  UNL1        0.0000
     10 H           1.1836    4.6859   11.6082 H       1  UNL1        0.0000
     11 C          -0.5050    5.0083    7.9160 C.3     1  UNL1        0.0000
     12 H          -1.2822    4.3166    7.6057 H       1  UNL1        0.0000
     13 H           0.4380    4.6198    7.5459 H       1  UNL1        0.0000
     14 H          -0.6972    5.9586    7.4229 H       1  UNL1        0.0000
@<TRIPOS>BOND
     1    14    11    1
     2    13    11    1
     3    12    11    1
     4    11     1    1
     5     1     2    1
     6     1     3    1
     7     1     7    1
     8     6     3    1
     9     9     7    1
    10     5     3    1
    11     3     4    1
    12     8     7    1
    13     7    10    1
