@<TRIPOS>MOLECULE
1
 14 13 0 0 0
SMALL
GASTEIGER

@<TRIPOS>ATOM
      1 N           5.6775   -2.3060    4.4603 N.3     1  UNL1       -0.1371
      2 C           5.3256   -3.6732    4.5359 C.3     1  UNL1        0.0466
      3 C           4.7285   -3.9341    5.9350 C.3     1  UNL1       -0.0443
      4 C           4.2743   -3.9822    3.4516 C.3     1  UNL1       -0.0443
      5 C           6.5503   -4.5865    4.3476 C.3     1  UNL1       -0.0443
      6 H           4.5879   -4.9993    6.1012 H       1  UNL1        0.0248
      7 H           5.4115   -3.5361    6.6844 H       1  UNL1        0.0248
      8 H           3.7711   -3.4282    6.0293 H       1  UNL1        0.0248
      9 H           3.8509   -4.9730    3.5977 H       1  UNL1        0.0248
     10 H           4.7336   -3.9318    2.4678 H       1  UNL1        0.0248
     11 H           3.4828   -3.2362    3.5024 H       1  UNL1        0.0248
     12 H           6.2374   -5.6276    4.3213 H       1  UNL1        0.0248
     13 H           7.2395   -4.4417    5.1742 H       1  UNL1        0.0248
     14 H           7.0583   -4.3365    3.4228 H       1  UNL1        0.0248
@<TRIPOS>BOND
     1    10     4    1
     2    14     5    1
     3     4    11    1
     4     4     9    1
     5     4     2    1
     6    12     5    1
     7     5     2    1
     8     5    13    1
     9     1     2    1
    10     2     3    1
    11     3     8    1
    12     3     6    1
    13     3     7    1
