@<TRIPOS>MOLECULE
2
 35 37 0 0 0
SMALL
GASTEIGER

@<TRIPOS>ATOM
      1 SI          3.2987   -2.9021    2.5056 Si      1  UNL1        0.0000
      2 N           3.8707   -1.3208    2.5504 N.3     1  UNL1        0.0000
      3 C           4.5908   -4.1218    1.8233 C.ar    1  UNL1        0.0000
      4 C           4.7938   -5.3790    2.3784 C.ar    1  UNL1        0.0000
      5 H           4.1967   -5.6851    3.2264 H       1  UNL1        0.0000
      6 C           5.7482   -6.2412    1.8667 C.ar    1  UNL1        0.0000
      7 H           5.8898   -7.2173    2.3102 H       1  UNL1        0.0000
      8 C           6.5232   -5.8547    0.7864 C.ar    1  UNL1        0.0000
      9 H           7.2691   -6.5264    0.3849 H       1  UNL1        0.0000
     10 C           6.3366   -4.6035    0.2224 C.ar    1  UNL1        0.0000
     11 H           6.9385   -4.2974   -0.6227 H       1  UNL1        0.0000
     12 C           5.3777   -3.7507    0.7387 C.ar    1  UNL1        0.0000
     13 H           5.2234   -2.7750    0.2973 H       1  UNL1        0.0000
     14 C           1.7300   -3.0120    1.4319 C.ar    1  UNL1        0.0000
     15 C           1.2482   -1.8544    0.8322 C.ar    1  UNL1        0.0000
     16 H           1.8000   -0.9323    0.9822 H       1  UNL1        0.0000
     17 C           0.1054   -1.8732    0.0532 C.ar    1  UNL1        0.0000
     18 H          -0.2551   -0.9633   -0.4069 H       1  UNL1        0.0000
     19 C          -0.5774   -3.0629   -0.1405 C.ar    1  UNL1        0.0000
     20 H          -1.4719   -3.0838   -0.7474 H       1  UNL1        0.0000
     21 C          -0.1057   -4.2275    0.4417 C.ar    1  UNL1        0.0000
     22 H          -0.6327   -5.1592    0.2870 H       1  UNL1        0.0000
     23 C           1.0391   -4.1985    1.2191 C.ar    1  UNL1        0.0000
     24 H           1.4046   -5.1121    1.6678 H       1  UNL1        0.0000
     25 C           2.8575   -3.4156    4.2888 C.ar    1  UNL1        0.0000
     26 C           1.5519   -3.6237    4.7180 C.ar    1  UNL1        0.0000
     27 H           0.7445   -3.5817    3.9981 H       1  UNL1        0.0000
     28 C           1.2679   -3.8925    6.0471 C.ar    1  UNL1        0.0000
     29 H           0.2455   -4.0580    6.3598 H       1  UNL1        0.0000
     30 C           2.2934   -3.9478    6.9760 C.ar    1  UNL1        0.0000
     31 H           2.0745   -4.1546    8.0141 H       1  UNL1        0.0000
     32 C           3.6007   -3.7403    6.5666 C.ar    1  UNL1        0.0000
     33 H           4.4053   -3.7799    7.2868 H       1  UNL1        0.0000
     34 C           3.8734   -3.4773    5.2365 C.ar    1  UNL1        0.0000
     35 H           4.8945   -3.3174    4.9178 H       1  UNL1        0.0000
@<TRIPOS>BOND
     1    20    19    1
     2    11    10    1
     3    18    17    1
     4    19    17   ar
     5    19    21   ar
     6    17    15   ar
     7    10    12   ar
     8    10     8   ar
     9    22    21    1
    10    13    12    1
    11     9     8    1
    12    21    23   ar
    13    12     3   ar
    14     8     6   ar
    15    15    16    1
    16    15    14   ar
    17    23    14   ar
    18    23    24    1
    19    14     1    1
    20     3     4   ar
    21     3     1    1
    22     6     7    1
    23     6     4   ar
    24     4     5    1
    25     1     2    1
    26     1    25    1
    27    27    26    1
    28    25    26   ar
    29    25    34   ar
    30    26    28   ar
    31    35    34    1
    32    34    32   ar
    33    28    29    1
    34    28    30   ar
    35    32    30   ar
    36    32    33    1
    37    30    31    1
