@<TRIPOS>MOLECULE
2
 35 37 0 0 0
SMALL
GASTEIGER

@<TRIPOS>ATOM
      1 SI          5.0931    9.6162   -8.1501 Si      1  UNL1        0.0000
      2 N           3.8549   10.3205   -7.2740 N.3     1  UNL1        0.0000
      3 C           5.6614    8.0261   -7.2653 C.ar    1  UNL1        0.0000
      4 C           4.5117    9.1752   -9.9112 C.ar    1  UNL1        0.0000
      5 C           6.6120   10.7665   -8.2474 C.ar    1  UNL1        0.0000
      6 C           7.1151   11.2858   -9.4328 C.ar    1  UNL1        0.0000
      7 H           6.6248   11.0441  -10.3661 H       1  UNL1        0.0000
      8 C           6.8451    7.3656   -7.5671 C.ar    1  UNL1        0.0000
      9 H           7.4875    7.7516   -8.3471 H       1  UNL1        0.0000
     10 C           5.3412    8.6539  -10.8962 C.ar    1  UNL1        0.0000
     11 H           6.3859    8.4837  -10.6766 H       1  UNL1        0.0000
     12 C           7.2211    6.2260   -6.8772 C.ar    1  UNL1        0.0000
     13 H           8.1462    5.7228   -7.1248 H       1  UNL1        0.0000
     14 C           4.8528    8.3432  -12.1538 C.ar    1  UNL1        0.0000
     15 H           5.5147    7.9404  -12.9086 H       1  UNL1        0.0000
     16 C           8.2411   12.0914   -9.4418 C.ar    1  UNL1        0.0000
     17 H           8.6341   12.4639  -10.3791 H       1  UNL1        0.0000
     18 C           6.4146    5.7317   -5.8663 C.ar    1  UNL1        0.0000
     19 H           6.7076    4.8423   -5.3256 H       1  UNL1        0.0000
     20 C           8.8755   12.4093   -8.2528 C.ar    1  UNL1        0.0000
     21 H           9.7622   13.0283   -8.2595 H       1  UNL1        0.0000
     22 C           3.5139    8.5409  -12.4460 C.ar    1  UNL1        0.0000
     23 H           3.1294    8.2943  -13.4262 H       1  UNL1        0.0000
     24 C           5.2349    6.3848   -5.5476 C.ar    1  UNL1        0.0000
     25 H           4.6057    6.0066   -4.7538 H       1  UNL1        0.0000
     26 C           2.6692    9.0471  -11.4717 C.ar    1  UNL1        0.0000
     27 H           1.6183    9.1865  -11.6879 H       1  UNL1        0.0000
     28 C           8.3667   11.9283   -7.0578 C.ar    1  UNL1        0.0000
     29 H           8.8533   12.1786   -6.1246 H       1  UNL1        0.0000
     30 C           4.8641    7.5222   -6.2429 C.ar    1  UNL1        0.0000
     31 H           3.9477    8.0515   -5.9940 H       1  UNL1        0.0000
     32 C           3.1697    9.3617  -10.2217 C.ar    1  UNL1        0.0000
     33 H           2.5179    9.7509   -9.4482 H       1  UNL1        0.0000
     34 C           7.2484   11.1144   -7.0609 C.ar    1  UNL1        0.0000
     35 H           6.8575   10.7274   -6.1299 H       1  UNL1        0.0000
@<TRIPOS>BOND
     1    23    22    1
     2    15    14    1
     3    22    14   ar
     4    22    26   ar
     5    14    10   ar
     6    27    26    1
     7    26    32   ar
     8    10    11    1
     9    10     4   ar
    10    17    16    1
    11     7     6    1
    12    32     4   ar
    13    32    33    1
    14     4     1    1
    15    16     6   ar
    16    16    20   ar
    17     6     5   ar
    18     9     8    1
    19    21    20    1
    20    20    28   ar
    21     5     1    1
    22     5    34   ar
    23     1     2    1
    24     1     3    1
    25     8     3   ar
    26     8    12   ar
    27     3    30   ar
    28    13    12    1
    29    34    28   ar
    30    34    35    1
    31    28    29    1
    32    12    18   ar
    33    30    31    1
    34    30    24   ar
    35    18    24   ar
    36    18    19    1
    37    24    25    1
