@<TRIPOS>MOLECULE
1
 6 5 0 0 0
SMALL
GASTEIGER

@<TRIPOS>ATOM
      1 N           3.8951    1.3634    3.5770 N.3     1  UNL1       -0.1324
      2 C           4.8649    0.7393    3.6524 C.3     1  UNL1        0.0975
      3 C           6.0827   -0.0186    3.7427 C.3     1  UNL1       -0.0400
      4 H           6.0501   -0.6784    4.6105 H       1  UNL1        0.0250
      5 H           6.9294    0.6605    3.8438 H       1  UNL1        0.0250
      6 H           6.2147   -0.6198    2.8423 H       1  UNL1        0.0250
@<TRIPOS>BOND
     1     6     3    1
     2     1     2    1
     3     2     3    1
     4     3     5    1
     5     3     4    1
