@<TRIPOS>MOLECULE
1
 6 5 0 0 0
SMALL
GASTEIGER

@<TRIPOS>ATOM
      1 N           2.0257    2.7771    5.2913 N.3     1  UNL1       -0.1324
      2 C           1.3856    2.9512    6.2304 C.3     1  UNL1        0.0975
      3 C           0.5629    3.1592    7.3798 C.3     1  UNL1       -0.0400
      4 H           0.4735    4.2238    7.5924 H       1  UNL1        0.0250
      5 H           0.9786    2.6431    8.2444 H       1  UNL1        0.0250
      6 H          -0.4195    2.7478    7.1435 H       1  UNL1        0.0250
@<TRIPOS>BOND
     1     1     2    1
     2     2     3    1
     3     6     3    1
     4     3     4    1
     5     3     5    1
