@<TRIPOS>MOLECULE
1
 6 5 0 0 0
SMALL
GASTEIGER

@<TRIPOS>ATOM
      1 N           4.4943   13.8883   11.6270 N.3     1  UNL1       -0.1324
      2 C           4.3048   12.7854   11.8987 C.3     1  UNL1        0.0975
      3 C           4.0602   11.4235   12.2315 C.3     1  UNL1       -0.0400
      4 H           4.9453   10.8414   11.9664 H       1  UNL1        0.0250
      5 H           3.1836   11.0491   11.7045 H       1  UNL1        0.0250
      6 H           3.9108   11.3620   13.3119 H       1  UNL1        0.0250
@<TRIPOS>BOND
     1     1     2    1
     2     5     3    1
     3     2     3    1
     4     4     3    1
     5     3     6    1
