@<TRIPOS>MOLECULE
1
 39 39 0 0 0
SMALL
GASTEIGER

@<TRIPOS>ATOM
      1 N           4.4811    4.7917   -1.3032 N.3     1  UNL1        0.0000
      2 C           4.0043    4.1825   -2.1572 C.3     1  UNL1        0.0000
      3 C           3.3309    3.5255   -3.1819 C.ar    1  UNL1        0.0000
      4 C           2.2917    4.2499   -3.8045 C.ar    1  UNL1        0.0000
      5 C           1.5929    3.6176   -4.8293 C.ar    1  UNL1        0.0000
      6 C           1.9130    2.3312   -5.2170 C.ar    1  UNL1        0.0000
      7 C           2.9410    1.6302   -4.5934 C.ar    1  UNL1        0.0000
      8 C           3.6550    2.2236   -3.5758 C.ar    1  UNL1        0.0000
      9 N           2.0041    5.5474   -3.4006 N.pl3   1  UNL1        0.0000
     10 SI          3.0537    6.8161   -4.0742 Si      1  UNL1        0.0000
     11 C           2.0874    7.5138   -5.5705 C.3     1  UNL1        0.0000
     12 C           3.4598    8.1560   -2.8041 C.3     1  UNL1        0.0000
     13 C           4.6589    6.0117   -4.7121 C.3     1  UNL1        0.0000
     14 SI          0.7370    5.6880   -2.1844 Si      1  UNL1        0.0000
     15 C           0.2806    7.5085   -1.9307 C.3     1  UNL1        0.0000
     16 C          -0.7872    4.7222   -2.8214 C.3     1  UNL1        0.0000
     17 C           1.2987    4.9001   -0.5401 C.3     1  UNL1        0.0000
     18 H           0.8045    4.1649   -5.3203 H       1  UNL1        0.0000
     19 H           1.3620    1.8644   -6.0201 H       1  UNL1        0.0000
     20 H           3.1816    0.6273   -4.9099 H       1  UNL1        0.0000
     21 H           4.4626    1.7080   -3.0785 H       1  UNL1        0.0000
     22 H           1.0914    7.8363   -5.2845 H       1  UNL1        0.0000
     23 H           2.5997    8.3695   -5.9977 H       1  UNL1        0.0000
     24 H           1.9780    6.7728   -6.3571 H       1  UNL1        0.0000
     25 H           2.7376    8.9647   -2.8116 H       1  UNL1        0.0000
     26 H           3.5073    7.7556   -1.7947 H       1  UNL1        0.0000
     27 H           4.4325    8.5856   -3.0233 H       1  UNL1        0.0000
     28 H           5.1950    6.7116   -5.3457 H       1  UNL1        0.0000
     29 H           5.3238    5.7553   -3.8904 H       1  UNL1        0.0000
     30 H           4.4810    5.1140   -5.2977 H       1  UNL1        0.0000
     31 H           0.2484    8.0599   -2.8632 H       1  UNL1        0.0000
     32 H          -0.6968    7.5864   -1.4658 H       1  UNL1        0.0000
     33 H           0.9935    7.9945   -1.2757 H       1  UNL1        0.0000
     34 H          -0.5654    3.6705   -2.9776 H       1  UNL1        0.0000
     35 H          -1.6002    4.7793   -2.1047 H       1  UNL1        0.0000
     36 H          -1.1551    5.1252   -3.7597 H       1  UNL1        0.0000
     37 H           1.6358    3.8742   -0.6697 H       1  UNL1        0.0000
     38 H           2.1168    5.4667   -0.1001 H       1  UNL1        0.0000
     39 H           0.4829    4.8868    0.1765 H       1  UNL1        0.0000
@<TRIPOS>BOND
     1    24    11    1
     2    19     6    1
     3    23    11    1
     4    11    22    1
     5    11    10    1
     6    28    13    1
     7    18     5    1
     8    30    13    1
     9     6     5   ar
    10     6     7   ar
    11    20     7    1
    12     5     4   ar
    13    13    10    1
    14    13    29    1
    15     7     8   ar
    16    10     9    1
    17    10    12    1
    18     4     9    1
    19     4     3   ar
    20    36    16    1
    21     8     3   ar
    22     8    21    1
    23     9    14    1
    24     3     2    1
    25    27    12    1
    26    34    16    1
    27    31    15    1
    28    16    14    1
    29    16    35    1
    30    25    12    1
    31    12    26    1
    32    14    15    1
    33    14    17    1
    34     2     1    1
    35    15    32    1
    36    15    33    1
    37    37    17    1
    38    17    38    1
    39    17    39    1
