@<TRIPOS>MOLECULE
1
 39 39 0 0 0
SMALL
GASTEIGER

@<TRIPOS>ATOM
      1 N           4.8044    4.4794    1.3033 N.3     1  UNL1        0.0000
      2 C           4.1904    4.0057    2.1555 C.3     1  UNL1        0.0000
      3 C           3.5277    3.3340    3.1775 C.ar    1  UNL1        0.0000
      4 C           4.2474    2.2930    3.8026 C.ar    1  UNL1        0.0000
      5 C           2.2244    3.6601    3.5650 C.ar    1  UNL1        0.0000
      6 C           3.6086    1.5941    4.8232 C.ar    1  UNL1        0.0000
      7 N           5.5463    2.0038    3.4043 N.pl3   1  UNL1        0.0000
      8 C           1.6247    2.9459    4.5788 C.ar    1  UNL1        0.0000
      9 H           1.7128    4.4690    3.0657 H       1  UNL1        0.0000
     10 C           2.3207    1.9159    5.2046 C.ar    1  UNL1        0.0000
     11 H           4.1519    0.8042    5.3163 H       1  UNL1        0.0000
     12 SI          6.8143    3.0551    4.0767 Si      1  UNL1        0.0000
     13 SI          5.6897    0.7343    2.1907 Si      1  UNL1        0.0000
     14 H           0.6206    3.1877    4.8904 H       1  UNL1        0.0000
     15 H           1.8488    1.3647    6.0046 H       1  UNL1        0.0000
     16 C           7.5116    2.0894    5.5736 C.3     1  UNL1        0.0000
     17 C           8.1548    3.4621    2.8075 C.3     1  UNL1        0.0000
     18 C           6.0100    4.6611    4.7130 C.3     1  UNL1        0.0000
     19 C           7.5114    0.2851    1.9333 C.3     1  UNL1        0.0000
     20 C           4.7318   -0.7928    2.8327 C.3     1  UNL1        0.0000
     21 C           4.8958    1.2911    0.5475 C.3     1  UNL1        0.0000
     22 H           7.8359    1.0940    5.2875 H       1  UNL1        0.0000
     23 H           8.3658    2.6029    6.0022 H       1  UNL1        0.0000
     24 H           6.7696    1.9785    6.3591 H       1  UNL1        0.0000
     25 H           8.9644    2.7410    2.8159 H       1  UNL1        0.0000
     26 H           7.7551    3.5088    1.7978 H       1  UNL1        0.0000
     27 H           8.5830    4.4355    3.0266 H       1  UNL1        0.0000
     28 H           6.7084    5.1953    5.3497 H       1  UNL1        0.0000
     29 H           5.7580    5.3271    3.8908 H       1  UNL1        0.0000
     30 H           5.1096    4.4844    5.2950 H       1  UNL1        0.0000
     31 H           8.0649    0.2555    2.8645 H       1  UNL1        0.0000
     32 H           7.5921   -0.6921    1.4686 H       1  UNL1        0.0000
     33 H           7.9930    0.9997    1.2768 H       1  UNL1        0.0000
     34 H           3.6785   -0.5768    2.9859 H       1  UNL1        0.0000
     35 H           4.7954   -1.6086    2.1197 H       1  UNL1        0.0000
     36 H           5.1355   -1.1540    3.7734 H       1  UNL1        0.0000
     37 H           3.8704    1.6283    0.6800 H       1  UNL1        0.0000
     38 H           5.4608    2.1082    0.1033 H       1  UNL1        0.0000
     39 H           4.8801    0.4735   -0.1669 H       1  UNL1        0.0000
@<TRIPOS>BOND
     1    39    21    1
     2    38    21    1
     3    21    37    1
     4    21    13    1
     5    33    19    1
     6     1     2    1
     7    32    19    1
     8    26    17    1
     9    19    13    1
    10    19    31    1
    11    35    20    1
    12     2     3    1
    13    13    20    1
    14    13     7    1
    15    17    25    1
    16    17    27    1
    17    17    12    1
    18    20    34    1
    19    20    36    1
    20     9     5    1
    21     3     5   ar
    22     3     4   ar
    23     7     4    1
    24     7    12    1
    25     5     8   ar
    26     4     6   ar
    27    29    18    1
    28    12    18    1
    29    12    16    1
    30     8    14    1
    31     8    10   ar
    32    18    30    1
    33    18    28    1
    34     6    10   ar
    35     6    11    1
    36    10    15    1
    37    22    16    1
    38    16    23    1
    39    16    24    1
