@<TRIPOS>MOLECULE
1
 12 12 0 0 0
SMALL
GASTEIGER

@<TRIPOS>ATOM
      1 N           1.9671   10.9477   -0.0425 N.pl3   1  UNL1       -0.1294
      2 C           3.2417   10.6065   -0.2338 C.ar    1  UNL1        0.0724
      3 C           3.8347   10.6580   -1.5152 C.ar    1  UNL1       -0.0372
      4 C           5.1504   10.2950   -1.6964 C.ar    1  UNL1       -0.0599
      5 C           5.9279    9.8840   -0.6228 C.ar    1  UNL1       -0.0616
      6 C           5.3674    9.8338    0.6449 C.ar    1  UNL1       -0.0599
      7 C           4.0490   10.1794    0.8432 C.ar    1  UNL1       -0.0372
      8 H           3.2269   10.9918   -2.3437 H       1  UNL1        0.0637
      9 H           5.5833   10.3384   -2.6862 H       1  UNL1        0.0618
     10 H           6.9608    9.6074   -0.7721 H       1  UNL1        0.0618
     11 H           5.9677    9.5149    1.4859 H       1  UNL1        0.0618
     12 H           3.6061   10.1356    1.8296 H       1  UNL1        0.0637
@<TRIPOS>BOND
     1     9     4    1
     2     8     3    1
     3     4     3   ar
     4     4     5   ar
     5     3     2   ar
     6    10     5    1
     7     5     6   ar
     8     2     1    1
     9     2     7   ar
    10     6     7   ar
    11     6    11    1
    12     7    12    1
