@<TRIPOS>MOLECULE
1
 30 30 0 0 0
SMALL
GASTEIGER

@<TRIPOS>ATOM
      1 N          -1.3215    7.2923    7.5194 N.pl3   1  UNL1       -0.1288
      2 C          -1.8813    8.1986    8.3462 C.ar    1  UNL1        0.0792
      3 C          -1.3170    8.5009    9.6068 C.ar    1  UNL1       -0.0200
      4 C          -1.9403    9.4311   10.4208 C.ar    1  UNL1       -0.0564
      5 H          -1.5120    9.6700   11.3828 H       1  UNL1        0.0621
      6 C          -3.1057   10.0616   10.0250 C.ar    1  UNL1       -0.0611
      7 H          -3.5821   10.7787   10.6766 H       1  UNL1        0.0618
      8 C          -3.6577    9.7754    8.7875 C.ar    1  UNL1       -0.0564
      9 H          -4.5643   10.2783    8.4896 H       1  UNL1        0.0621
     10 C          -3.0627    8.8651    7.9335 C.ar    1  UNL1       -0.0200
     11 C          -0.0422    7.8200   10.0422 C.3     1  UNL1       -0.0196
     12 H           0.2369    7.1042    9.2467 H       1  UNL1        0.0344
     13 C          -0.2459    7.0522   11.3501 C.3     1  UNL1       -0.0586
     14 H          -1.0407    6.3192   11.2408 H       1  UNL1        0.0235
     15 H           0.6683    6.5329   11.6258 H       1  UNL1        0.0235
     16 H          -0.5080    7.7323   12.1571 H       1  UNL1        0.0235
     17 C           1.0927    8.8363   10.1892 C.3     1  UNL1       -0.0586
     18 H           2.0258    8.3273   10.4191 H       1  UNL1        0.0235
     19 H           1.2180    9.3951    9.2659 H       1  UNL1        0.0235
     20 H           0.8772    9.5398   10.9899 H       1  UNL1        0.0235
     21 C          -3.6375    8.5254    6.5792 C.3     1  UNL1       -0.0196
     22 H          -2.7946    8.2505    5.9246 H       1  UNL1        0.0344
     23 C          -4.5347    7.2869    6.6952 C.3     1  UNL1       -0.0586
     24 H          -3.9386    6.4323    7.0135 H       1  UNL1        0.0235
     25 H          -5.3320    7.4589    7.4165 H       1  UNL1        0.0235
     26 H          -4.9751    7.0560    5.7281 H       1  UNL1        0.0235
     27 C          -4.4024    9.6828    5.9387 C.3     1  UNL1       -0.0586
     28 H          -3.8124   10.5956    5.9678 H       1  UNL1        0.0235
     29 H          -4.6200    9.4459    4.8999 H       1  UNL1        0.0235
     30 H          -5.3477    9.8599    6.4466 H       1  UNL1        0.0235
@<TRIPOS>BOND
     1    29    27    1
     2    26    23    1
     3    22    21    1
     4    27    28    1
     5    27    30    1
     6    27    21    1
     7    21    23    1
     8    21    10    1
     9    23    24    1
    10    23    25    1
    11     1     2    1
    12    10     2   ar
    13    10     8   ar
    14     2     3   ar
    15     9     8    1
    16     8     6   ar
    17    12    11    1
    18    19    17    1
    19     3    11    1
    20     3     4   ar
    21     6     4   ar
    22     6     7    1
    23    11    17    1
    24    11    13    1
    25    17    18    1
    26    17    20    1
    27     4     5    1
    28    14    13    1
    29    13    15    1
    30    13    16    1
