@<TRIPOS>MOLECULE
2
 14 13 0 0 0
SMALL
GASTEIGER

@<TRIPOS>ATOM
      1 SI          3.9794   -1.6524    1.2872 Si      1  UNL1        0.0000
      2 N           3.5019   -0.1237    1.8913 N.3     1  UNL1        0.0000
      3 C           4.9295   -2.4899    2.7394 C.3     1  UNL1        0.0000
      4 C           5.1300   -1.4791   -0.2330 C.3     1  UNL1        0.0000
      5 C           2.5001   -2.7653    0.7877 C.3     1  UNL1        0.0000
      6 H           5.9981   -2.3055    2.6694 H       1  UNL1        0.0000
      7 H           4.5704   -2.0589    3.6815 H       1  UNL1        0.0000
      8 H           4.7844   -3.5650    2.7710 H       1  UNL1        0.0000
      9 H           5.5714   -2.4354   -0.4937 H       1  UNL1        0.0000
     10 H           4.5858   -1.1190   -1.1002 H       1  UNL1        0.0000
     11 H           5.9386   -0.7812   -0.0363 H       1  UNL1        0.0000
     12 H           2.8344   -3.5720    0.1442 H       1  UNL1        0.0000
     13 H           2.0262   -3.2110    1.6565 H       1  UNL1        0.0000
     14 H           1.7438   -2.2034    0.2485 H       1  UNL1        0.0000
@<TRIPOS>BOND
     1    10     4    1
     2     9     4    1
     3     4    11    1
     4     4     1    1
     5    12     5    1
     6    14     5    1
     7     5     1    1
     8     5    13    1
     9     1     2    1
    10     1     3    1
    11     6     3    1
    12     3     8    1
    13     3     7    1
