@<TRIPOS>MOLECULE
2
 14 13 0 0 0
SMALL
GASTEIGER

@<TRIPOS>ATOM
      1 SI          2.4745   -1.4365    6.0380 Si      1  UNL1        0.0000
      2 N           3.0443   -0.2987    4.8982 N.3     1  UNL1        0.0000
      3 C           2.1951   -3.1746    5.2776 C.3     1  UNL1        0.0000
      4 C           3.7352   -1.6016    7.4697 C.3     1  UNL1        0.0000
      5 C           0.7970   -0.8602    6.7767 C.3     1  UNL1        0.0000
      6 H           1.5333   -3.7697    5.8993 H       1  UNL1        0.0000
      7 H           1.7541   -3.1096    4.2883 H       1  UNL1        0.0000
      8 H           3.1308   -3.7162    5.1833 H       1  UNL1        0.0000
      9 H           3.4408   -2.3858    8.1596 H       1  UNL1        0.0000
     10 H           4.7227   -1.8455    7.0893 H       1  UNL1        0.0000
     11 H           3.8220   -0.6780    8.0340 H       1  UNL1        0.0000
     12 H           0.3511   -1.6545    7.3656 H       1  UNL1        0.0000
     13 H           0.9204   -0.0040    7.4334 H       1  UNL1        0.0000
     14 H           0.0889   -0.5882    5.9988 H       1  UNL1        0.0000
@<TRIPOS>BOND
     1     7     3    1
     2     2     1    1
     3     8     3    1
     4     3     6    1
     5     3     1    1
     6    14     5    1
     7     1     5    1
     8     1     4    1
     9     5    12    1
    10     5    13    1
    11    10     4    1
    12     4    11    1
    13     4     9    1
