@<TRIPOS>MOLECULE
1
 14 13 0 0 0
SMALL
GASTEIGER

@<TRIPOS>ATOM
      1 N           3.4019    0.0642    8.1417 N.3     1  UNL1        0.0000
      2 SI          2.1767   -0.0059    6.9730 Si      1  UNL1        0.0000
      3 C           1.3735   -1.7531    6.9132 C.3     1  UNL1        0.0000
      4 H           1.9917   -2.4483    6.3542 H       1  UNL1        0.0000
      5 H           0.3947   -1.7307    6.4447 H       1  UNL1        0.0000
      6 H           1.2594   -2.1570    7.9147 H       1  UNL1        0.0000
      7 C           0.7927    1.2830    7.3143 C.3     1  UNL1        0.0000
      8 H           0.0660    0.9022    8.0244 H       1  UNL1        0.0000
      9 H           0.2588    1.5432    6.4060 H       1  UNL1        0.0000
     10 H           1.2206    2.1928    7.7257 H       1  UNL1        0.0000
     11 C           2.8728    0.3710    5.2166 C.3     1  UNL1        0.0000
     12 H           2.9557    1.4407    5.0501 H       1  UNL1        0.0000
     13 H           2.2373   -0.0348    4.4357 H       1  UNL1        0.0000
     14 H           3.8644   -0.0580    5.0951 H       1  UNL1        0.0000
@<TRIPOS>BOND
     1    13    11    1
     2    12    11    1
     3    14    11    1
     4    11     2    1
     5     4     3    1
     6     9     7    1
     7     5     3    1
     8     3     2    1
     9     3     6    1
    10     2     7    1
    11     2     1    1
    12     7    10    1
    13     7     8    1
