@<TRIPOS>MOLECULE
1
 6 5 0 0 0
SMALL
GASTEIGER

@<TRIPOS>ATOM
      1 N           4.3633    9.8015    4.1120 N.3     1  UNL1       -0.1324
      2 C           5.4354    9.5904    3.7525 C.3     1  UNL1        0.0975
      3 C           6.7632    9.3272    3.3088 C.3     1  UNL1       -0.0400
      4 H           7.2281   10.2346    2.9263 H       1  UNL1        0.0250
      5 H           6.7129    8.5660    2.5277 H       1  UNL1        0.0250
      6 H           7.3343    8.9306    4.1498 H       1  UNL1        0.0250
@<TRIPOS>BOND
     1     5     3    1
     2     4     3    1
     3     3     2    1
     4     3     6    1
     5     2     1    1
