@<TRIPOS>MOLECULE
1
 6 5 0 0 0
SMALL
GASTEIGER

@<TRIPOS>ATOM
      1 N           4.5119   17.3442    5.0546 N.3     1  UNL1       -0.1324
      2 C           5.5771   17.0472    5.3805 C.3     1  UNL1        0.0975
      3 C           6.8960   16.7031    5.7861 C.3     1  UNL1       -0.0400
      4 H           7.4029   16.2361    4.9386 H       1  UNL1        0.0250
      5 H           6.8226   15.9731    6.5956 H       1  UNL1        0.0250
      6 H           7.4400   17.5872    6.1165 H       1  UNL1        0.0250
@<TRIPOS>BOND
     1     4     3    1
     2     1     2    1
     3     2     3    1
     4     3     6    1
     5     3     5    1
