@<TRIPOS>MOLECULE
1
 17 17 0 0 0
SMALL
GASTEIGER

@<TRIPOS>ATOM
      1 N           0.1375    4.0297    2.5111 N.3     1  UNL1       -0.0171
      2 N           0.7667    4.9058    1.8078 N.pl3   1  UNL1       -0.2354
      3 C           0.8509    6.2600    2.3369 C.3     1  UNL1        0.0197
      4 C           1.3812    4.5932    0.5988 C.ar    1  UNL1        0.0471
      5 C           2.0644    5.5483   -0.1586 C.ar    1  UNL1       -0.0393
      6 C           2.6588    5.1877   -1.3533 C.ar    1  UNL1       -0.0600
      7 C           2.5878    3.8863   -1.8204 C.ar    1  UNL1       -0.0616
      8 C           1.9020    2.9369   -1.0783 C.ar    1  UNL1       -0.0600
      9 C           1.3036    3.2842    0.1130 C.ar    1  UNL1       -0.0393
     10 H           1.8921    6.5771    2.4136 H       1  UNL1        0.0444
     11 H           0.4133    6.2350    3.3357 H       1  UNL1        0.0444
     12 H           0.2987    6.9626    1.7089 H       1  UNL1        0.0444
     13 H           2.1347    6.5721    0.1708 H       1  UNL1        0.0636
     14 H           3.1845    5.9371   -1.9275 H       1  UNL1        0.0618
     15 H           3.0567    3.6155   -2.7541 H       1  UNL1        0.0618
     16 H           1.8322    1.9187   -1.4330 H       1  UNL1        0.0618
     17 H           0.7589    2.5529    0.6911 H       1  UNL1        0.0636
@<TRIPOS>BOND
     1    15     7    1
     2    14     6    1
     3     7     6   ar
     4     7     8   ar
     5    16     8    1
     6     6     5   ar
     7     8     9   ar
     8     5    13    1
     9     5     4   ar
    10     9     4   ar
    11     9    17    1
    12     4     2    1
    13    12     3    1
    14     2     3    1
    15     2     1    1
    16     3    10    1
    17     3    11    1
