@<TRIPOS>MOLECULE
1
 17 17 0 0 0
SMALL
GASTEIGER

@<TRIPOS>ATOM
      1 N           6.3463    9.8806    6.6514 N.3     1  UNL1       -0.0171
      2 N           5.0737    9.7525    6.6193 N.pl3   1  UNL1       -0.2354
      3 C           4.3036    9.7556    7.7852 C.ar    1  UNL1        0.0471
      4 C           2.9150    9.6310    7.7417 C.ar    1  UNL1       -0.0393
      5 C           2.1871    9.6386    8.9176 C.ar    1  UNL1       -0.0600
      6 C           2.8203    9.7679   10.1419 C.ar    1  UNL1       -0.0616
      7 C           4.2003    9.8916   10.1862 C.ar    1  UNL1       -0.0600
      8 C           4.9404    9.8865    9.0222 C.ar    1  UNL1       -0.0393
      9 C           4.4623    9.6077    5.3085 C.3     1  UNL1        0.0197
     10 H           2.3957    9.5292    6.8028 H       1  UNL1        0.0636
     11 H           1.1122    9.5420    8.8732 H       1  UNL1        0.0618
     12 H           2.2433    9.7724   11.0538 H       1  UNL1        0.0618
     13 H           4.7070    9.9931   11.1336 H       1  UNL1        0.0618
     14 H           6.0167    9.9834    9.0584 H       1  UNL1        0.0636
     15 H           3.9313    8.6573    5.2360 H       1  UNL1        0.0444
     16 H           5.2684    9.6281    4.5720 H       1  UNL1        0.0444
     17 H           3.7743   10.4317    5.1126 H       1  UNL1        0.0444
@<TRIPOS>BOND
     1    16     9    1
     2    17     9    1
     3    15     9    1
     4     9     2    1
     5     2     1    1
     6     2     3    1
     7    10     4    1
     8     4     3   ar
     9     4     5   ar
    10     3     8   ar
    11    11     5    1
    12     5     6   ar
    13     8    14    1
    14     8     7   ar
    15     6     7   ar
    16     6    12    1
    17     7    13    1
