@<TRIPOS>MOLECULE
1
 17 17 0 0 0
SMALL
GASTEIGER

@<TRIPOS>ATOM
      1 N          -1.6920    4.0301    4.6515 N.3     1  UNL1       -0.0171
      2 N          -2.3183    4.9085    5.3543 N.pl3   1  UNL1       -0.2354
      3 C          -2.3938    6.2638    4.8268 C.3     1  UNL1        0.0197
      4 C          -2.9381    4.5977    6.5612 C.ar    1  UNL1        0.0471
      5 H          -3.4329    6.5882    4.7518 H       1  UNL1        0.0444
      6 H          -1.9575    6.2368    3.8274 H       1  UNL1        0.0444
      7 H          -1.8358    6.9619    5.4547 H       1  UNL1        0.0444
      8 C          -3.6126    5.5571    7.3209 C.ar    1  UNL1       -0.0393
      9 C          -2.8755    3.2861    7.0420 C.ar    1  UNL1       -0.0393
     10 C          -4.2129    5.1983    8.5133 C.ar    1  UNL1       -0.0600
     11 H          -3.6715    6.5828    6.9953 H       1  UNL1        0.0636
     12 C          -3.4795    2.9407    8.2310 C.ar    1  UNL1       -0.0600
     13 H          -2.3383    2.5509    6.4617 H       1  UNL1        0.0636
     14 C          -4.1563    3.8946    8.9757 C.ar    1  UNL1       -0.0616
     15 H          -4.7318    5.9510    9.0892 H       1  UNL1        0.0618
     16 H          -3.4212    1.9205    8.5820 H       1  UNL1        0.0618
     17 H          -4.6297    3.6252    9.9075 H       1  UNL1        0.0618
@<TRIPOS>BOND
     1     6     3    1
     2     1     2    1
     3     5     3    1
     4     3     2    1
     5     3     7    1
     6     2     4    1
     7    13     9    1
     8     4     9   ar
     9     4     8   ar
    10    11     8    1
    11     9    12   ar
    12     8    10   ar
    13    12    16    1
    14    12    14   ar
    15    10    14   ar
    16    10    15    1
    17    14    17    1
