@<TRIPOS>MOLECULE
1
 66 68 0 0 0
SMALL
GASTEIGER

@<TRIPOS>ATOM
      1 N          10.1027    7.0750    2.3988 N.3     1  UNL1       -0.0877
      2 N           8.9847    8.3237    0.6654 N.pl3   1  UNL1       -0.2640
      3 N          11.1372    7.8546    0.4145 N.pl3   1  UNL1       -0.2640
      4 C          10.0635    7.6790    1.3169 C.3     1  UNL1        0.2542
      5 C           9.4056    8.8168   -0.5595 C.2     1  UNL1        0.0144
      6 H           8.7328    9.3421   -1.2088 H       1  UNL1        0.0797
      7 C          10.7102    8.5367   -0.7082 C.2     1  UNL1        0.0144
      8 H          11.3841    8.7781   -1.5061 H       1  UNL1        0.0797
      9 C           7.6769    8.4924    1.1576 C.ar    1  UNL1        0.0436
     10 C           7.4339    9.4429    2.1586 C.ar    1  UNL1       -0.0231
     11 C           6.1202    9.6720    2.5426 C.ar    1  UNL1       -0.0565
     12 H           5.8977   10.4287    3.2792 H       1  UNL1        0.0621
     13 C           5.0797    8.9557    1.9784 C.ar    1  UNL1       -0.0611
     14 H           4.0621    9.1500    2.2876 H       1  UNL1        0.0618
     15 C           5.3375    7.9865    1.0271 C.ar    1  UNL1       -0.0565
     16 H           4.5160    7.4235    0.6115 H       1  UNL1        0.0621
     17 C           6.6334    7.7454    0.5948 C.ar    1  UNL1       -0.0231
     18 C           8.5870   10.2281    2.7430 C.3     1  UNL1       -0.0197
     19 H           9.4455    9.5518    2.8108 H       1  UNL1        0.0344
     20 C           8.3115   10.7564    4.1496 C.3     1  UNL1       -0.0586
     21 H           7.9513    9.9571    4.7934 H       1  UNL1        0.0235
     22 H           7.5799   11.5620    4.1379 H       1  UNL1        0.0235
     23 H           9.2319   11.1490    4.5765 H       1  UNL1        0.0235
     24 C           8.9451   11.3920    1.8115 C.3     1  UNL1       -0.0586
     25 H           9.7786   11.9581    2.2223 H       1  UNL1        0.0235
     26 H           8.0935   12.0615    1.7010 H       1  UNL1        0.0235
     27 H           9.2280   11.0312    0.8256 H       1  UNL1        0.0235
     28 C           6.9432    6.6631   -0.4139 C.3     1  UNL1       -0.0197
     29 H           7.8562    6.9397   -0.9493 H       1  UNL1        0.0344
     30 C           7.2201    5.3602    0.3432 C.3     1  UNL1       -0.0586
     31 H           7.5389    4.5807   -0.3455 H       1  UNL1        0.0235
     32 H           6.3202    5.0231    0.8549 H       1  UNL1        0.0235
     33 H           8.0043    5.5166    1.0862 H       1  UNL1        0.0235
     34 C           5.8410    6.4618   -1.4532 C.3     1  UNL1       -0.0586
     35 H           5.5561    7.4113   -1.9015 H       1  UNL1        0.0235
     36 H           4.9581    6.0044   -1.0131 H       1  UNL1        0.0235
     37 H           6.1977    5.8026   -2.2418 H       1  UNL1        0.0235
     38 C          12.4501    7.4240    0.6796 C.ar    1  UNL1        0.0436
     39 C          13.2542    8.1755    1.5424 C.ar    1  UNL1       -0.0231
     40 C          14.5199    7.6965    1.8526 C.ar    1  UNL1       -0.0565
     41 H          15.1533    8.2512    2.5290 H       1  UNL1        0.0621
     42 C          14.9853    6.5187    1.3002 C.ar    1  UNL1       -0.0611
     43 H          15.9733    6.1589    1.5499 H       1  UNL1        0.0618
     44 C          14.1918    5.7996    0.4237 C.ar    1  UNL1       -0.0565
     45 H          14.5714    4.8830   -0.0005 H       1  UNL1        0.0621
     46 C          12.9154    6.2370    0.1003 C.ar    1  UNL1       -0.0231
     47 C          12.7588    9.4810    2.1178 C.3     1  UNL1       -0.0197
     48 H          11.8201    9.7413    1.6207 H       1  UNL1        0.0344
     49 C          13.7508   10.6179    1.8636 C.3     1  UNL1       -0.0586
     50 H          13.3201   11.5639    2.1851 H       1  UNL1        0.0235
     51 H          13.9859   10.6889    0.8036 H       1  UNL1        0.0235
     52 H          14.6773   10.4654    2.4115 H       1  UNL1        0.0235
     53 C          12.4694    9.3246    3.6115 C.3     1  UNL1       -0.0586
     54 H          12.0443   10.2429    4.0115 H       1  UNL1        0.0235
     55 H          13.3820    9.1021    4.1612 H       1  UNL1        0.0235
     56 H          11.7570    8.5112    3.7605 H       1  UNL1        0.0235
     57 C          12.0061    5.4392   -0.8055 C.3     1  UNL1       -0.0197
     58 H          11.2880    6.1287   -1.2598 H       1  UNL1        0.0344
     59 C          11.2192    4.4314    0.0387 C.3     1  UNL1       -0.0586
     60 H          10.4741    3.9269   -0.5727 H       1  UNL1        0.0235
     61 H          10.7156    4.9413    0.8605 H       1  UNL1        0.0235
     62 H          11.8902    3.6821    0.4548 H       1  UNL1        0.0235
     63 C          12.7515    4.7334   -1.9378 C.3     1  UNL1       -0.0586
     64 H          12.0367    4.3271   -2.6503 H       1  UNL1        0.0235
     65 H          13.3526    3.9085   -1.5633 H       1  UNL1        0.0235
     66 H          13.4027    5.4295   -2.4623 H       1  UNL1        0.0235
@<TRIPOS>BOND
     1    64    63    1
     2    66    63    1
     3    37    34    1
     4    63    65    1
     5    63    57    1
     6    35    34    1
     7     8     7    1
     8    34    36    1
     9    34    28    1
    10    58    57    1
    11     6     5    1
    12    29    28    1
    13    57    59    1
    14    57    46    1
    15     7     5    2
    16     7     3    1
    17    60    59    1
    18     5     2    1
    19    28    30    1
    20    28    17    1
    21    31    30    1
    22    45    44    1
    23    59    62    1
    24    59    61    1
    25    46    44   ar
    26    46    38   ar
    27    30    32    1
    28    30    33    1
    29     3    38    1
    30     3     4    1
    31    44    42   ar
    32    17    15   ar
    33    17     9   ar
    34    16    15    1
    35     2     9    1
    36     2     4    1
    37    38    39   ar
    38    51    49    1
    39    27    24    1
    40    15    13   ar
    41     9    10   ar
    42    42    43    1
    43    42    40   ar
    44     4     1    1
    45    39    40   ar
    46    39    47    1
    47    48    47    1
    48    26    24    1
    49    24    25    1
    50    24    18    1
    51    40    41    1
    52    49    47    1
    53    49    50    1
    54    49    52    1
    55    13    14    1
    56    13    11   ar
    57    47    53    1
    58    10    11   ar
    59    10    18    1
    60    11    12    1
    61    18    19    1
    62    18    20    1
    63    53    56    1
    64    53    54    1
    65    53    55    1
    66    22    20    1
    67    20    23    1
    68    20    21    1
