@<TRIPOS>MOLECULE
1
 66 68 0 0 0
SMALL
GASTEIGER

@<TRIPOS>ATOM
      1 N           3.2646    1.8663    4.0881 N.3     1  UNL1       -0.0877
      2 N           2.5663   -0.0991    5.2270 N.pl3   1  UNL1       -0.2640
      3 N           4.4319    0.8693    5.9501 N.pl3   1  UNL1       -0.2640
      4 C           3.4190    0.9960    4.9715 C.3     1  UNL1        0.2542
      5 C           3.0585   -0.8311    6.2943 C.2     1  UNL1        0.0144
      6 H           2.5669   -1.7194    6.6347 H       1  UNL1        0.0797
      7 C           4.1898   -0.2544    6.7219 C.2     1  UNL1        0.0144
      8 H           4.8647   -0.5487    7.4998 H       1  UNL1        0.0797
      9 C           1.3956   -0.4586    4.5288 C.ar    1  UNL1        0.0436
     10 C           0.1626   -0.4380    5.1960 C.ar    1  UNL1       -0.0231
     11 C          -0.9693   -0.8692    4.5168 C.ar    1  UNL1       -0.0565
     12 H          -1.9238   -0.8746    5.0202 H       1  UNL1        0.0621
     13 C          -0.8941   -1.3002    3.2083 C.ar    1  UNL1       -0.0611
     14 H          -1.7829   -1.6425    2.6987 H       1  UNL1        0.0618
     15 C           0.3236   -1.3058    2.5543 C.ar    1  UNL1       -0.0565
     16 H           0.3683   -1.6573    1.5366 H       1  UNL1        0.0621
     17 C           1.4819   -0.8903    3.1943 C.ar    1  UNL1       -0.0231
     18 C           2.8251   -0.9593    2.5032 C.3     1  UNL1       -0.0197
     19 H           3.4010   -0.0798    2.8059 H       1  UNL1        0.0344
     20 C           2.7364   -0.9376    0.9778 C.3     1  UNL1       -0.0586
     21 H           2.3351   -1.8710    0.5882 H       1  UNL1        0.0235
     22 H           3.7323   -0.8043    0.5614 H       1  UNL1        0.0235
     23 H           2.1151   -0.1129    0.6379 H       1  UNL1        0.0235
     24 C           3.5587   -2.2270    2.9578 C.3     1  UNL1       -0.0586
     25 H           3.7069   -2.2321    4.0349 H       1  UNL1        0.0235
     26 H           4.5314   -2.2920    2.4758 H       1  UNL1        0.0235
     27 H           2.9809   -3.1099    2.6888 H       1  UNL1        0.0235
     28 C           0.0304    0.0139    6.6334 C.3     1  UNL1       -0.0197
     29 H           0.9868    0.4270    6.9647 H       1  UNL1        0.0344
     30 C          -0.3230   -1.1746    7.5334 C.3     1  UNL1       -0.0586
     31 H          -1.2938   -1.5840    7.2637 H       1  UNL1        0.0235
     32 H          -0.3596   -0.8595    8.5739 H       1  UNL1        0.0235
     33 H           0.4145   -1.9684    7.4410 H       1  UNL1        0.0235
     34 C          -1.0269    1.1103    6.7851 C.3     1  UNL1       -0.0586
     35 H          -0.8000    1.9563    6.1421 H       1  UNL1        0.0235
     36 H          -1.0447    1.4624    7.8143 H       1  UNL1        0.0235
     37 H          -2.0190    0.7417    6.5373 H       1  UNL1        0.0235
     38 C           5.6845    1.5273    5.9665 C.ar    1  UNL1        0.0436
     39 C           6.6286    1.2273    4.9756 C.ar    1  UNL1       -0.0231
     40 C           7.8697    1.8455    5.0287 C.ar    1  UNL1       -0.0565
     41 H           8.6088    1.6240    4.2745 H       1  UNL1        0.0621
     42 C           8.1869    2.7172    6.0518 C.ar    1  UNL1       -0.0611
     43 H           9.1595    3.1848    6.0820 H       1  UNL1        0.0618
     44 C           7.2650    2.9720    7.0476 C.ar    1  UNL1       -0.0565
     45 H           7.5296    3.6336    7.8579 H       1  UNL1        0.0621
     46 C           6.0047    2.3885    7.0236 C.ar    1  UNL1       -0.0231
     47 C           5.0322    2.6656    8.1461 C.3     1  UNL1       -0.0197
     48 H           4.0724    2.2035    7.8985 H       1  UNL1        0.0344
     49 C           4.8080    4.1689    8.3268 C.3     1  UNL1       -0.0586
     50 H           5.6996    4.6528    8.7180 H       1  UNL1        0.0235
     51 H           3.9928    4.3418    9.0258 H       1  UNL1        0.0235
     52 H           4.5513    4.6339    7.3773 H       1  UNL1        0.0235
     53 C           5.5357    2.0408    9.4508 C.3     1  UNL1       -0.0586
     54 H           5.6689    0.9671    9.3389 H       1  UNL1        0.0235
     55 H           4.8198    2.2173   10.2506 H       1  UNL1        0.0235
     56 H           6.4905    2.4726    9.7419 H       1  UNL1        0.0235
     57 C           6.3416    0.2085    3.8998 C.3     1  UNL1       -0.0197
     58 H           5.3544   -0.2216    4.0768 H       1  UNL1        0.0344
     59 C           6.3272    0.8727    2.5238 C.3     1  UNL1       -0.0586
     60 H           5.6332    1.7164    2.5199 H       1  UNL1        0.0235
     61 H           6.0177    0.1560    1.7658 H       1  UNL1        0.0235
     62 H           7.3169    1.2405    2.2651 H       1  UNL1        0.0235
     63 C           7.3571   -0.9366    3.9508 C.3     1  UNL1       -0.0586
     64 H           8.3607   -0.5845    3.7274 H       1  UNL1        0.0235
     65 H           7.0942   -1.6993    3.2210 H       1  UNL1        0.0235
     66 H           7.3660   -1.3942    4.9381 H       1  UNL1        0.0235
@<TRIPOS>BOND
     1    22    20    1
     2    21    20    1
     3    23    20    1
     4    20    18    1
     5    16    15    1
     6    61    59    1
     7    62    59    1
     8    26    24    1
     9    18    19    1
    10    18    24    1
    11    18    17    1
    12    60    59    1
    13    59    57    1
    14    15    17   ar
    15    15    13   ar
    16    27    24    1
    17    14    13    1
    18    24    25    1
    19    17     9   ar
    20    13    11   ar
    21    65    63    1
    22    64    63    1
    23    57    63    1
    24    57    58    1
    25    57    39    1
    26    63    66    1
    27     1     4    1
    28    41    40    1
    29    11    12    1
    30    11    10   ar
    31     9    10   ar
    32     9     2    1
    33     4     2    1
    34     4     3    1
    35    39    40   ar
    36    39    38   ar
    37    40    42   ar
    38    10    28    1
    39     2     5    1
    40     3    38    1
    41     3     7    1
    42    38    46   ar
    43    42    43    1
    44    42    44   ar
    45    35    34    1
    46     5     6    1
    47     5     7    2
    48    37    34    1
    49    28    34    1
    50    28    29    1
    51    28    30    1
    52     7     8    1
    53    34    36    1
    54    46    44   ar
    55    46    47    1
    56    44    45    1
    57    31    30    1
    58    52    49    1
    59    33    30    1
    60    30    32    1
    61    48    47    1
    62    47    49    1
    63    47    53    1
    64    49    50    1
    65    49    51    1
    66    54    53    1
    67    53    56    1
    68    53    55    1
