@<TRIPOS>MOLECULE
1
 14 13 0 0 0
SMALL
GASTEIGER

@<TRIPOS>ATOM
      1 N          -1.7709    5.2693    4.5390 N.3     1  UNL1       -0.1371
      2 C          -2.2675    6.0518    5.6110 C.3     1  UNL1        0.0466
      3 C          -3.0158    7.2666    5.0260 C.3     1  UNL1       -0.0443
      4 C          -3.2451    5.2370    6.4813 C.3     1  UNL1       -0.0443
      5 C          -1.1068    6.5499    6.4954 C.3     1  UNL1       -0.0443
      6 H          -3.4582    7.8639    5.8194 H       1  UNL1        0.0248
      7 H          -2.3235    7.8796    4.4568 H       1  UNL1        0.0248
      8 H          -3.7952    6.9136    4.3569 H       1  UNL1        0.0248
      9 H          -3.6124    5.8384    7.3095 H       1  UNL1        0.0248
     10 H          -4.0842    4.9098    5.8754 H       1  UNL1        0.0248
     11 H          -2.7388    4.3605    6.8766 H       1  UNL1        0.0248
     12 H          -1.4788    7.2105    7.2749 H       1  UNL1        0.0248
     13 H          -0.3861    7.0819    5.8826 H       1  UNL1        0.0248
     14 H          -0.6093    5.7022    6.9587 H       1  UNL1        0.0248
@<TRIPOS>BOND
     1     8     3    1
     2     7     3    1
     3     1     2    1
     4     3     2    1
     5     3     6    1
     6     2     4    1
     7     2     5    1
     8    10     4    1
     9    13     5    1
    10     4    11    1
    11     4     9    1
    12     5    14    1
    13     5    12    1
