@<TRIPOS>MOLECULE
2
 41 40 0 0 0
SMALL
GASTEIGER

@<TRIPOS>ATOM
      1 SI         -1.0990    1.9117    5.1020 Si      1  UNL1        0.0000
      2 N          -0.3306    2.9303    3.9309 N.3     1  UNL1        0.0000
      3 C          -0.0207    1.9195    6.7394 C.3     1  UNL1        0.0000
      4 C           1.4487    1.7999    6.3400 C.3     1  UNL1        0.0000
      5 C          -0.1617    3.2554    7.4699 C.3     1  UNL1        0.0000
      6 C          -0.3624    0.8091    7.7336 C.3     1  UNL1        0.0000
      7 C          -1.2824    0.1080    4.3404 C.3     1  UNL1        0.0000
      8 C          -2.3651   -0.7304    5.0232 C.3     1  UNL1        0.0000
      9 C           0.0183   -0.6907    4.4349 C.3     1  UNL1        0.0000
     10 C          -1.6079    0.2366    2.8506 C.3     1  UNL1        0.0000
     11 C          -2.8549    2.7365    5.4425 C.3     1  UNL1        0.0000
     12 C          -3.7922    2.4827    4.2627 C.3     1  UNL1        0.0000
     13 C          -3.5595    2.2351    6.7043 C.3     1  UNL1        0.0000
     14 C          -2.6812    4.2543    5.5500 C.3     1  UNL1        0.0000
     15 H           2.0940    1.9382    7.2083 H       1  UNL1        0.0000
     16 H           1.6673    0.8266    5.9160 H       1  UNL1        0.0000
     17 H           1.6782    2.5639    5.6005 H       1  UNL1        0.0000
     18 H           0.6062    3.3456    8.2399 H       1  UNL1        0.0000
     19 H          -0.0470    4.0751    6.7667 H       1  UNL1        0.0000
     20 H          -1.1260    3.3432    7.9610 H       1  UNL1        0.0000
     21 H           0.2509    0.9131    8.6297 H       1  UNL1        0.0000
     22 H          -1.4055    0.8536    8.0334 H       1  UNL1        0.0000
     23 H          -0.1699   -0.1740    7.3158 H       1  UNL1        0.0000
     24 H          -2.3883   -1.7292    4.5853 H       1  UNL1        0.0000
     25 H          -2.1653   -0.8355    6.0860 H       1  UNL1        0.0000
     26 H          -3.3524   -0.2977    4.9005 H       1  UNL1        0.0000
     27 H          -0.1000   -1.6465    3.9222 H       1  UNL1        0.0000
     28 H           0.8318   -0.1537    3.9650 H       1  UNL1        0.0000
     29 H           0.2834   -0.9061    5.4649 H       1  UNL1        0.0000
     30 H          -1.5663   -0.7406    2.3687 H       1  UNL1        0.0000
     31 H          -2.6010    0.6418    2.6917 H       1  UNL1        0.0000
     32 H          -0.8846    0.8983    2.3761 H       1  UNL1        0.0000
     33 H          -4.7047    3.0705    4.3697 H       1  UNL1        0.0000
     34 H          -3.3054    2.7673    3.3345 H       1  UNL1        0.0000
     35 H          -4.0827    1.4392    4.1981 H       1  UNL1        0.0000
     36 H          -4.5386    2.7081    6.7930 H       1  UNL1        0.0000
     37 H          -3.7081    1.1600    6.6732 H       1  UNL1        0.0000
     38 H          -2.9957    2.4760    7.6000 H       1  UNL1        0.0000
     39 H          -3.6502    4.7510    5.4828 H       1  UNL1        0.0000
     40 H          -2.2340    4.5375    6.4959 H       1  UNL1        0.0000
     41 H          -2.0365    4.6090    4.7432 H       1  UNL1        0.0000
@<TRIPOS>BOND
     1    30    10    1
     2    32    10    1
     3    31    10    1
     4    10     7    1
     5    34    12    1
     6    27     9    1
     7     2     1    1
     8    28     9    1
     9    35    12    1
    10    12    33    1
    11    12    11    1
    12     7     9    1
    13     7     8    1
    14     7     1    1
    15     9    29    1
    16    24     8    1
    17    41    14    1
    18    26     8    1
    19     8    25    1
    20     1    11    1
    21     1     3    1
    22    11    14    1
    23    11    13    1
    24    39    14    1
    25    14    40    1
    26    17     4    1
    27    16     4    1
    28     4     3    1
    29     4    15    1
    30    37    13    1
    31    13    36    1
    32    13    38    1
    33     3     5    1
    34     3     6    1
    35    19     5    1
    36    23     6    1
    37     5    20    1
    38     5    18    1
    39     6    22    1
    40     6    21    1
