@<TRIPOS>MOLECULE
1
 39 40 0 0 0
SMALL
GASTEIGER

@<TRIPOS>ATOM
      1 N          -9.0686    0.5878    3.9099 N.3     1  UNL1        0.0000
      2 P         -10.4502    0.8030    4.6037 P.3     1  UNL1        0.0000
      3 C         -11.8454    0.6902    3.4282 C.ar    1  UNL1        0.0000
      4 C         -11.5451    0.5769    2.0784 C.ar    1  UNL1        0.0000
      5 C         -12.5620    0.4495    1.1494 C.ar    1  UNL1        0.0000
      6 C         -13.8817    0.4267    1.5721 C.ar    1  UNL1        0.0000
      7 C         -14.1840    0.5316    2.9206 C.ar    1  UNL1        0.0000
      8 C         -13.1682    0.6633    3.8506 C.ar    1  UNL1        0.0000
      9 C         -10.7771    2.3183    5.5871 C.ar    1  UNL1        0.0000
     10 C         -10.1091    2.4349    6.8012 C.ar    1  UNL1        0.0000
     11 C         -10.2567    3.5743    7.5699 C.ar    1  UNL1        0.0000
     12 C         -11.0748    4.6021    7.1284 C.ar    1  UNL1        0.0000
     13 C         -11.7520    4.4835    5.9259 C.ar    1  UNL1        0.0000
     14 C         -11.6067    3.3444    5.1529 C.ar    1  UNL1        0.0000
     15 N         -10.7083   -0.4306    5.6959 N.3     1  UNL1        0.0000
     16 SI         -9.3981   -1.5331    6.0725 Si      1  UNL1        0.0000
     17 C          -7.8147   -0.6070    6.5964 C.3     1  UNL1        0.0000
     18 C          -9.1066   -2.5898    4.5160 C.3     1  UNL1        0.0000
     19 C         -10.0691   -2.5819    7.5115 C.3     1  UNL1        0.0000
     20 H         -10.4992    0.6104    1.7835 H       1  UNL1        0.0000
     21 H         -12.3305    0.3718    0.0969 H       1  UNL1        0.0000
     22 H         -14.6783    0.3298    0.8490 H       1  UNL1        0.0000
     23 H         -15.2144    0.5153    3.2457 H       1  UNL1        0.0000
     24 H         -13.3981    0.7584    4.9034 H       1  UNL1        0.0000
     25 H          -9.4696    1.6241    7.1250 H       1  UNL1        0.0000
     26 H          -9.7267    3.6670    8.5066 H       1  UNL1        0.0000
     27 H         -11.1832    5.4983    7.7219 H       1  UNL1        0.0000
     28 H         -12.3909    5.2845    5.5832 H       1  UNL1        0.0000
     29 H         -12.1309    3.2536    4.2109 H       1  UNL1        0.0000
     30 H          -7.6478    0.2374    5.9245 H       1  UNL1        0.0000
     31 H          -7.8785   -0.2256    7.6130 H       1  UNL1        0.0000
     32 H          -6.9419   -1.2522    6.5514 H       1  UNL1        0.0000
     33 H          -8.9236   -1.9241    3.6778 H       1  UNL1        0.0000
     34 H          -8.2568   -3.2569    4.6243 H       1  UNL1        0.0000
     35 H          -9.9755   -3.1968    4.2773 H       1  UNL1        0.0000
     36 H         -10.9800   -3.1024    7.2388 H       1  UNL1        0.0000
     37 H          -9.3355   -3.3295    7.7852 H       1  UNL1        0.0000
     38 H         -10.2760   -1.9879    8.3949 H       1  UNL1        0.0000
     39 H         -11.5300   -0.3601    6.2733 H       1  UNL1        0.0000
@<TRIPOS>BOND
     1    21     5    1
     2    22     6    1
     3     5     6   ar
     4     5     4   ar
     5     6     7   ar
     6    20     4    1
     7     4     3   ar
     8     7    23    1
     9     7     8   ar
    10     3     8   ar
    11     3     2    1
    12    33    18    1
    13     8    24    1
    14     1     2    1
    15    29    14    1
    16    35    18    1
    17    18    34    1
    18    18    16    1
    19     2     9    1
    20     2    15    1
    21    14     9   ar
    22    14    13   ar
    23    28    13    1
    24     9    10   ar
    25    15    16    1
    26    15    39    1
    27    30    17    1
    28    13    12   ar
    29    16    17    1
    30    16    19    1
    31    32    17    1
    32    17    31    1
    33    10    25    1
    34    10    11   ar
    35    12    11   ar
    36    12    27    1
    37    36    19    1
    38    19    37    1
    39    19    38    1
    40    11    26    1
