@<TRIPOS>MOLECULE
1
 75 78 0 0 0
SMALL
GASTEIGER

@<TRIPOS>ATOM
      1 N           2.2803    0.4737   13.2062 N.3     1  UNL1        0.0000
      2 P           1.1463   -0.0278   12.2442 P.3     1  UNL1        0.0000
      3 N           1.5590   -1.1783   11.1393 N.3     1  UNL1        0.0000
      4 P           3.0079   -1.1600   10.4577 P.3     1  UNL1        0.0000
      5 N           4.0555   -2.2802   11.0824 N.3     1  UNL1        0.0000
      6 SI          3.3211   -3.4769   12.1769 Si      1  UNL1        0.0000
      7 C           4.6171   -4.7916   12.6404 C.3     1  UNL1        0.0000
      8 C           1.9224   -4.3175   11.1857 C.3     1  UNL1        0.0000
      9 C           2.7708   -2.7119   13.8266 C.3     1  UNL1        0.0000
     10 SI          5.7824   -2.2449   10.6533 Si      1  UNL1        0.0000
     11 C           6.8172   -1.9363   12.2246 C.3     1  UNL1        0.0000
     12 C           6.1509   -0.8970    9.3539 C.3     1  UNL1        0.0000
     13 C           6.2247   -3.9293    9.8494 C.3     1  UNL1        0.0000
     14 C           0.4514    1.4081   11.3595 C.ar    1  UNL1        0.0000
     15 C          -0.4957    1.2409   10.3588 C.ar    1  UNL1        0.0000
     16 C          -0.9719    2.3449    9.6745 C.ar    1  UNL1        0.0000
     17 C          -0.5080    3.6112    9.9969 C.ar    1  UNL1        0.0000
     18 C           0.4249    3.7782   11.0082 C.ar    1  UNL1        0.0000
     19 C           0.9065    2.6759   11.6916 C.ar    1  UNL1        0.0000
     20 C          -0.2665   -0.7118   13.1597 C.ar    1  UNL1        0.0000
     21 C          -0.6550    0.0025   14.2882 C.ar    1  UNL1        0.0000
     22 C          -1.6852   -0.4702   15.0794 C.ar    1  UNL1        0.0000
     23 C          -2.3252   -1.6540   14.7417 C.ar    1  UNL1        0.0000
     24 C          -1.9381   -2.3630   13.6162 C.ar    1  UNL1        0.0000
     25 C          -0.9052   -1.8951   12.8218 C.ar    1  UNL1        0.0000
     26 C           3.7675    0.4795   10.6287 C.ar    1  UNL1        0.0000
     27 C           3.4099    1.5380    9.8065 C.ar    1  UNL1        0.0000
     28 C           3.8041    2.8253   10.1328 C.ar    1  UNL1        0.0000
     29 C           4.5226    3.0637   11.2936 C.ar    1  UNL1        0.0000
     30 C           4.8880    2.0074   12.1154 C.ar    1  UNL1        0.0000
     31 C           4.5164    0.7155   11.7775 C.ar    1  UNL1        0.0000
     32 C           2.6761   -1.5333    8.7104 C.ar    1  UNL1        0.0000
     33 C           1.6319   -0.8522    8.0924 C.ar    1  UNL1        0.0000
     34 C           1.3055   -1.1221    6.7761 C.ar    1  UNL1        0.0000
     35 C           2.0079   -2.0871    6.0718 C.ar    1  UNL1        0.0000
     36 C           3.0302   -2.7865    6.6914 C.ar    1  UNL1        0.0000
     37 C           3.3635   -2.5113    8.0064 C.ar    1  UNL1        0.0000
     38 H           4.8636   -5.4506   11.8187 H       1  UNL1        0.0000
     39 H           5.5380   -4.3592   13.0096 H       1  UNL1        0.0000
     40 H           4.2066   -5.4081   13.4317 H       1  UNL1        0.0000
     41 H           1.3942   -3.5808   10.5873 H       1  UNL1        0.0000
     42 H           2.3105   -5.0775   10.5123 H       1  UNL1        0.0000
     43 H           1.2044   -4.7989   11.8427 H       1  UNL1        0.0000
     44 H           1.9296   -2.0316   13.6915 H       1  UNL1        0.0000
     45 H           2.4616   -3.4829   14.5276 H       1  UNL1        0.0000
     46 H           3.5896   -2.1513   14.2905 H       1  UNL1        0.0000
     47 H           6.2135   -1.8967   13.1275 H       1  UNL1        0.0000
     48 H           7.5600   -2.7159   12.3593 H       1  UNL1        0.0000
     49 H           7.3551   -0.9950   12.1594 H       1  UNL1        0.0000
     50 H           6.3286    0.0684    9.8155 H       1  UNL1        0.0000
     51 H           7.0456   -1.1563    8.7952 H       1  UNL1        0.0000
     52 H           5.3423   -0.7745    8.6395 H       1  UNL1        0.0000
     53 H           6.9452   -4.4622   10.4602 H       1  UNL1        0.0000
     54 H           5.3654   -4.5797    9.7225 H       1  UNL1        0.0000
     55 H           6.6816   -3.7870    8.8741 H       1  UNL1        0.0000
     56 H          -0.8519    0.2450   10.1319 H       1  UNL1        0.0000
     57 H          -1.7068    2.2220    8.8918 H       1  UNL1        0.0000
     58 H          -0.8811    4.4716    9.4604 H       1  UNL1        0.0000
     59 H           0.7751    4.7674   11.2637 H       1  UNL1        0.0000
     60 H           1.6381    2.7714   12.4884 H       1  UNL1        0.0000
     61 H          -0.1275    0.9235   14.5334 H       1  UNL1        0.0000
     62 H          -1.9868    0.0764   15.9606 H       1  UNL1        0.0000
     63 H          -3.1266   -2.0266   15.3627 H       1  UNL1        0.0000
     64 H          -2.4396   -3.2855   13.3608 H       1  UNL1        0.0000
     65 H          -0.5787   -2.4370   11.9469 H       1  UNL1        0.0000
     66 H           2.8320    1.3594    8.9104 H       1  UNL1        0.0000
     67 H           3.5303    3.6467    9.4871 H       1  UNL1        0.0000
     68 H           4.8000    4.0735   11.5569 H       1  UNL1        0.0000
     69 H           5.4602    2.1842   13.0196 H       1  UNL1        0.0000
     70 H           4.8211   -0.1228   12.3910 H       1  UNL1        0.0000
     71 H           1.0688   -0.1246    8.6594 H       1  UNL1        0.0000
     72 H           0.4986   -0.5846    6.2998 H       1  UNL1        0.0000
     73 H           1.7512   -2.3006    5.0448 H       1  UNL1        0.0000
     74 H           3.5681   -3.5504    6.1496 H       1  UNL1        0.0000
     75 H           4.1531   -3.0575    8.4957 H       1  UNL1        0.0000
@<TRIPOS>BOND
     1    73    35    1
     2    35    36   ar
     3    35    34   ar
     4    74    36    1
     5    72    34    1
     6    36    37   ar
     7    34    33   ar
     8    37    75    1
     9    37    32   ar
    10    33    71    1
    11    33    32   ar
    12    52    12    1
    13    32     4    1
    14    51    12    1
    15    55    13    1
    16    57    16    1
    17    66    27    1
    18    12    50    1
    19    12    10    1
    20    58    17    1
    21    67    28    1
    22    16    17   ar
    23    16    15   ar
    24    54    13    1
    25    27    28   ar
    26    27    26   ar
    27    13    53    1
    28    13    10    1
    29    17    18   ar
    30    56    15    1
    31    28    29   ar
    32    15    14   ar
    33     4    26    1
    34     4     5    1
    35     4     3    1
    36    42     8    1
    37    41     8    1
    38    26    31   ar
    39    10     5    1
    40    10    11    1
    41    18    59    1
    42    18    19   ar
    43     5     6    1
    44     3     2    1
    45     8    43    1
    46     8     6    1
    47    29    68    1
    48    29    30   ar
    49    14    19   ar
    50    14     2    1
    51    19    60    1
    52    31    30   ar
    53    31    70    1
    54    38     7    1
    55    65    25    1
    56    30    69    1
    57    49    11    1
    58     6     7    1
    59     6     9    1
    60    11    48    1
    61    11    47    1
    62     2    20    1
    63     2     1    1
    64     7    39    1
    65     7    40    1
    66    25    20   ar
    67    25    24   ar
    68    20    21   ar
    69    64    24    1
    70    24    23   ar
    71    44     9    1
    72     9    46    1
    73     9    45    1
    74    21    61    1
    75    21    22   ar
    76    23    22   ar
    77    23    63    1
    78    22    62    1
