@<TRIPOS>MOLECULE
1
 12 12 0 0 0
SMALL
GASTEIGER

@<TRIPOS>ATOM
      1 N           6.8790    1.7189    1.0719 N.pl3   1  UNL1       -0.1294
      2 C           7.8607    0.7940    1.0900 C.ar    1  UNL1        0.0724
      3 C           9.0024    1.0338    1.8819 C.ar    1  UNL1       -0.0372
      4 H           9.0304    1.9654    2.4416 H       1  UNL1        0.0637
      5 C          10.0292    0.1186    1.9313 C.ar    1  UNL1       -0.0599
      6 H          10.8976    0.3187    2.5434 H       1  UNL1        0.0618
      7 C           9.9568   -1.0597    1.2003 C.ar    1  UNL1       -0.0616
      8 H          10.7642   -1.7752    1.2422 H       1  UNL1        0.0618
      9 C           7.8050   -0.4023    0.3560 C.ar    1  UNL1       -0.0372
     10 H           6.9333   -0.5941   -0.2553 H       1  UNL1        0.0637
     11 C           8.8418   -1.3105    0.4169 C.ar    1  UNL1       -0.0599
     12 H           8.7817   -2.2265   -0.1542 H       1  UNL1        0.0618
@<TRIPOS>BOND
     1    10     9    1
     2    12    11    1
     3     9    11   ar
     4     9     2   ar
     5    11     7   ar
     6     1     2    1
     7     2     3   ar
     8     7     8    1
     9     7     5   ar
    10     3     5   ar
    11     3     4    1
    12     5     6    1
