@<TRIPOS>MOLECULE
1
 12 12 0 0 0
SMALL
GASTEIGER

@<TRIPOS>ATOM
      1 N           5.8224   14.4580    4.3958 N.pl3   1  UNL1       -0.1294
      2 C           4.4942   14.2521    4.3597 C.ar    1  UNL1        0.0724
      3 C           3.6517   14.6466    5.4160 C.ar    1  UNL1       -0.0372
      4 H           4.1041   15.1284    6.2731 H       1  UNL1        0.0637
      5 C           2.2935   14.4224    5.3532 C.ar    1  UNL1       -0.0599
      6 H           1.6621   14.7324    6.1744 H       1  UNL1        0.0618
      7 C           1.7290   13.8034    4.2478 C.ar    1  UNL1       -0.0616
      8 H           0.6640   13.6307    4.2053 H       1  UNL1        0.0618
      9 C           2.5434   13.4077    3.1966 C.ar    1  UNL1       -0.0599
     10 H           2.1079   12.9248    2.3325 H       1  UNL1        0.0618
     11 C           3.9028   13.6249    3.2445 C.ar    1  UNL1       -0.0372
     12 H           4.5556   13.3230    2.4331 H       1  UNL1        0.0637
@<TRIPOS>BOND
     1    10     9    1
     2    12    11    1
     3     9    11   ar
     4     9     7   ar
     5    11     2   ar
     6     8     7    1
     7     7     5   ar
     8     2     1    1
     9     2     3   ar
    10     5     3   ar
    11     5     6    1
    12     3     4    1
