@<TRIPOS>MOLECULE
1
 12 12 0 0 0
SMALL
GASTEIGER

@<TRIPOS>ATOM
      1 N           4.2988    8.8550    9.8961 N.pl3   1  UNL1       -0.1294
      2 C           5.4035    9.5939    9.7573 C.ar    1  UNL1        0.0724
      3 C           5.4761   10.6914    8.8658 C.ar    1  UNL1       -0.0372
      4 H           4.5997   10.9331    8.2787 H       1  UNL1        0.0637
      5 C           6.6273   11.4345    8.7386 C.ar    1  UNL1       -0.0599
      6 H           6.6505   12.2636    8.0436 H       1  UNL1        0.0618
      7 C           7.7562   11.1366    9.4881 C.ar    1  UNL1       -0.0616
      8 H           8.6555   11.7247    9.3825 H       1  UNL1        0.0618
      9 C           7.7118   10.0725   10.3775 C.ar    1  UNL1       -0.0599
     10 H           8.5855    9.8314   10.9694 H       1  UNL1        0.0618
     11 C           6.5701    9.3167   10.5159 C.ar    1  UNL1       -0.0372
     12 H           6.5345    8.4842   11.2112 H       1  UNL1        0.0637
@<TRIPOS>BOND
     1     6     5    1
     2     4     3    1
     3     5     3   ar
     4     5     7   ar
     5     3     2   ar
     6     8     7    1
     7     7     9   ar
     8     2     1    1
     9     2    11   ar
    10     9    11   ar
    11     9    10    1
    12    11    12    1
