@<TRIPOS>MOLECULE
1
 12 12 0 0 0
SMALL
GASTEIGER

@<TRIPOS>ATOM
      1 N           3.7592    0.6814   10.8106 N.pl3   1  UNL1       -0.1294
      2 C           4.4087   -1.3743   11.8309 C.ar    1  UNL1       -0.0372
      3 H           3.4569   -1.7914   11.5171 H       1  UNL1        0.0637
      4 C           4.6648   -0.0216   11.5031 C.ar    1  UNL1        0.0724
      5 C           6.8078   -0.2480   12.6205 C.ar    1  UNL1       -0.0599
      6 H           7.7453    0.1905   12.9346 H       1  UNL1        0.0618
      7 C           6.5367   -1.5748   12.9238 C.ar    1  UNL1       -0.0616
      8 H           7.2547   -2.1689   13.4690 H       1  UNL1        0.0618
      9 C           5.8997    0.5191   11.9254 C.ar    1  UNL1       -0.0372
     10 H           6.1058    1.5546   11.6917 H       1  UNL1        0.0637
     11 C           5.3280   -2.1278   12.5249 C.ar    1  UNL1       -0.0599
     12 H           5.1055   -3.1599   12.7633 H       1  UNL1        0.0618
@<TRIPOS>BOND
     1     1     4    1
     2     4     2   ar
     3     4     9   ar
     4     3     2    1
     5    10     9    1
     6     2    11   ar
     7     9     5   ar
     8    11    12    1
     9    11     7   ar
    10     5     7   ar
    11     5     6    1
    12     7     8    1
