@<TRIPOS>MOLECULE
1
 12 12 0 0 0
SMALL
GASTEIGER

@<TRIPOS>ATOM
      1 N           5.6752    5.2083   10.7608 N.pl3   1  UNL1       -0.1294
      2 C           9.0227    6.6374   10.4163 C.ar    1  UNL1       -0.0599
      3 H           9.5603    7.3079    9.7592 H       1  UNL1        0.0618
      4 C           7.6518    4.9118   12.0854 C.ar    1  UNL1       -0.0372
      5 H           7.1089    4.2264   12.7229 H       1  UNL1        0.0637
      6 C           8.9741    5.2043   12.3294 C.ar    1  UNL1       -0.0599
      7 H           9.4741    4.7484   13.1738 H       1  UNL1        0.0618
      8 C           9.6735    6.0710   11.5021 C.ar    1  UNL1       -0.0616
      9 H          10.7110    6.2966   11.6972 H       1  UNL1        0.0618
     10 C           7.6992    6.3590   10.1623 C.ar    1  UNL1       -0.0372
     11 H           7.2067    6.8008    9.3056 H       1  UNL1        0.0637
     12 C           6.9578    5.4871   10.9951 C.ar    1  UNL1        0.0724
@<TRIPOS>BOND
     1    11    10    1
     2     3     2    1
     3    10     2   ar
     4    10    12   ar
     5     2     8   ar
     6     1    12    1
     7    12     4   ar
     8     8     9    1
     9     8     6   ar
    10     4     6   ar
    11     4     5    1
    12     6     7    1
