@<TRIPOS>MOLECULE
1
 14 13 0 0 0
SMALL
GASTEIGER

@<TRIPOS>ATOM
      1 N          10.8230   -2.5762    4.2514 N.3     1  UNL1       -0.1371
      2 C          10.0384   -3.5078    4.9660 C.3     1  UNL1        0.0466
      3 C          10.6636   -3.8025    6.3449 C.3     1  UNL1       -0.0443
      4 H          11.6892   -4.1381    6.2174 H       1  UNL1        0.0248
      5 H          10.0968   -4.5739    6.8605 H       1  UNL1        0.0248
      6 H          10.6686   -2.9016    6.9508 H       1  UNL1        0.0248
      7 C           9.9668   -4.8231    4.1617 C.3     1  UNL1       -0.0443
      8 H           9.5375   -4.6280    3.1832 H       1  UNL1        0.0248
      9 H           9.3586   -5.5586    4.6823 H       1  UNL1        0.0248
     10 H          10.9701   -5.2169    4.0235 H       1  UNL1        0.0248
     11 C           8.6141   -2.9527    5.1671 C.3     1  UNL1       -0.0443
     12 H           8.6668   -2.0086    5.7009 H       1  UNL1        0.0248
     13 H           8.0063   -3.6557    5.7315 H       1  UNL1        0.0248
     14 H           8.1504   -2.7768    4.2001 H       1  UNL1        0.0248
@<TRIPOS>BOND
     1     8     7    1
     2    10     7    1
     3     7     9    1
     4     7     2    1
     5    14    11    1
     6     1     2    1
     7     2    11    1
     8     2     3    1
     9    11    12    1
    10    11    13    1
    11     4     3    1
    12     3     5    1
    13     3     6    1
