@<TRIPOS>MOLECULE
1
 24 25 0 0 0
SMALL
GASTEIGER

@<TRIPOS>ATOM
      1 N           0.9402    0.5214    5.3670 N.3     1  UNL1       -0.0117
      2 N           0.4334   -0.5434    6.0078 N.pl3   1  UNL1       -0.2010
      3 C          -1.7702   -1.5047    5.5789 C.ar    1  UNL1       -0.0389
      4 H          -1.3114   -2.2444    4.9411 H       1  UNL1        0.0637
      5 C          -3.1398   -1.4912    5.7660 C.ar    1  UNL1       -0.0600
      6 H          -3.7547   -2.2256    5.2676 H       1  UNL1        0.0618
      7 C          -3.7250   -0.5371    6.5830 C.ar    1  UNL1       -0.0616
      8 H          -4.7954   -0.5281    6.7225 H       1  UNL1        0.0618
      9 C          -2.9328    0.3993    7.2253 C.ar    1  UNL1       -0.0600
     10 H          -3.3837    1.1349    7.8745 H       1  UNL1        0.0618
     11 C          -1.5609    0.3879    7.0503 C.ar    1  UNL1       -0.0389
     12 H          -0.9341    1.0927    7.5743 H       1  UNL1        0.0637
     13 C          -0.9739   -0.5584    6.2183 C.ar    1  UNL1        0.0530
     14 C           0.6844   -2.6649    7.1701 C.ar    1  UNL1       -0.0389
     15 H          -0.3622   -2.6701    7.4332 H       1  UNL1        0.0637
     16 C           1.4997   -3.7024    7.5758 C.ar    1  UNL1       -0.0600
     17 H           1.0734   -4.5157    8.1449 H       1  UNL1        0.0618
     18 C           2.8510   -3.7095    7.2678 C.ar    1  UNL1       -0.0616
     19 H           3.4782   -4.5271    7.5878 H       1  UNL1        0.0618
     20 C           3.3882   -2.6503    6.5532 C.ar    1  UNL1       -0.0600
     21 H           4.4418   -2.6370    6.3158 H       1  UNL1        0.0618
     22 C           2.5865   -1.6077    6.1404 C.ar    1  UNL1       -0.0389
     23 H           2.9877   -0.7729    5.5851 H       1  UNL1        0.0637
     24 C           1.2186   -1.6065    6.4281 C.ar    1  UNL1        0.0530
@<TRIPOS>BOND
     1     4     3    1
     2     6     5    1
     3     1     2    1
     4     3     5   ar
     5     3    13   ar
     6    23    22    1
     7     5     7   ar
     8     2    13    1
     9     2    24    1
    10    22    24   ar
    11    22    20   ar
    12    13    11   ar
    13    21    20    1
    14    24    14   ar
    15    20    18   ar
    16     7     8    1
    17     7     9   ar
    18    11     9   ar
    19    11    12    1
    20    14    15    1
    21    14    16   ar
    22     9    10    1
    23    18    16   ar
    24    18    19    1
    25    16    17    1
