@<TRIPOS>MOLECULE
1
 13 13 0 0 0
SMALL
GASTEIGER

@<TRIPOS>ATOM
      1 N           4.3277    4.3065    3.3587 N.3     1  UNL1        0.0043
      2 N           4.4063    3.8891    4.4726 N.pl3   1  UNL1       -0.1308
      3 C           3.4663    3.2731    5.2769 C.ar    1  UNL1        0.0701
      4 C           2.1323    3.1566    4.8759 C.ar    1  UNL1       -0.0374
      5 H           1.8280    3.5491    3.9151 H       1  UNL1        0.0637
      6 C           1.2213    2.5530    5.7169 C.ar    1  UNL1       -0.0599
      7 H           0.1905    2.4633    5.4090 H       1  UNL1        0.0618
      8 C           1.6245    2.0655    6.9512 C.ar    1  UNL1       -0.0616
      9 H           0.9062    1.5958    7.6052 H       1  UNL1        0.0618
     10 C           2.9485    2.1812    7.3464 C.ar    1  UNL1       -0.0599
     11 H           3.2594    1.8003    8.3071 H       1  UNL1        0.0618
     12 C           3.8733    2.7843    6.5162 C.ar    1  UNL1       -0.0374
     13 H           4.9066    2.8805    6.8101 H       1  UNL1        0.0637
@<TRIPOS>BOND
     1     1     2    1
     2     5     4    1
     3     2     3    1
     4     4     3   ar
     5     4     6   ar
     6     3    12   ar
     7     7     6    1
     8     6     8   ar
     9    12    13    1
    10    12    10   ar
    11     8    10   ar
    12     8     9    1
    13    10    11    1
