@<TRIPOS>MOLECULE
1
 14 14 0 0 0
SMALL
GASTEIGER

@<TRIPOS>ATOM
      1 N           5.7942    5.7425    1.4045 N.3     1  UNL1       -0.0198
      2 N           6.8302    5.9504    2.1002 N.pl3   1  UNL1       -0.2457
      3 C           8.0548    6.3883    1.5879 C.ar    1  UNL1        0.0442
      4 C           8.2133    6.6030    0.2213 C.ar    1  UNL1       -0.0395
      5 H           7.3708    6.4435   -0.4335 H       1  UNL1        0.0636
      6 C           9.4390    7.0037   -0.2714 C.ar    1  UNL1       -0.0600
      7 H           9.5634    7.1689   -1.3306 H       1  UNL1        0.0618
      8 C          10.5092    7.1908    0.5897 C.ar    1  UNL1       -0.0616
      9 H          11.4663    7.5011    0.2010 H       1  UNL1        0.0618
     10 C          10.3496    6.9797    1.9506 C.ar    1  UNL1       -0.0600
     11 H          11.1823    7.1274    2.6206 H       1  UNL1        0.0618
     12 C           9.1272    6.5794    2.4543 C.ar    1  UNL1       -0.0395
     13 H           8.9958    6.4117    3.5131 H       1  UNL1        0.0636
     14 H           6.8319    5.7324    3.1110 H       1  UNL1        0.1693
@<TRIPOS>BOND
     1     7     6    1
     2     5     4    1
     3     6     4   ar
     4     6     8   ar
     5     9     8    1
     6     4     3   ar
     7     8    10   ar
     8     1     2    1
     9     3     2    1
    10     3    12   ar
    11    10    12   ar
    12    10    11    1
    13     2    14    1
    14    12    13    1
