@<TRIPOS>MOLECULE
2
 17 16 0 0 0
SMALL
GASTEIGER

@<TRIPOS>ATOM
      1 SI          6.7614    7.7335   -0.7184 Si      1  UNL1        0.0000
      2 N           4.0583    8.9614    1.2184 N.pl3   1  UNL1        0.0000
      3 N           4.2072    8.0775    0.4298 N.2     1  UNL1        0.0000
      4 C           4.9268    7.4110   -0.3790 C.2     1  UNL1        0.0000
      5 H           4.4074    6.5960   -0.8689 H       1  UNL1        0.0000
      6 C           7.4743    8.7129    0.7470 C.3     1  UNL1        0.0000
      7 H           8.3722    9.2594    0.4765 H       1  UNL1        0.0000
      8 H           7.7248    8.0566    1.5748 H       1  UNL1        0.0000
      9 H           6.7534    9.4382    1.1129 H       1  UNL1        0.0000
     10 C           6.9943    8.6957   -2.3538 C.3     1  UNL1        0.0000
     11 H           8.0483    8.8084   -2.5911 H       1  UNL1        0.0000
     12 H           6.5615    9.6892   -2.2999 H       1  UNL1        0.0000
     13 H           6.5259    8.1776   -3.1855 H       1  UNL1        0.0000
     14 C           7.6131    6.0338   -0.8964 C.3     1  UNL1        0.0000
     15 H           7.1932    5.4703   -1.7238 H       1  UNL1        0.0000
     16 H           7.5012    5.4326    0.0005 H       1  UNL1        0.0000
     17 H           8.6760    6.1477   -1.0856 H       1  UNL1        0.0000
@<TRIPOS>BOND
     1    13    10    1
     2    11    10    1
     3    10    12    1
     4    10     1    1
     5    15    14    1
     6    17    14    1
     7    14     1    1
     8    14    16    1
     9     5     4    1
    10     1     4    1
    11     1     6    1
    12     4     3    2
    13     3     2    1
    14     7     6    1
    15     6     9    1
    16     6     8    1
