@<TRIPOS>MOLECULE
1
 6 5 0 0 0
SMALL
GASTEIGER

@<TRIPOS>ATOM
      1 N           4.7112   13.6430    3.6031 N.3     1  UNL1       -0.1324
      2 C           3.7462   13.1135    3.9487 C.3     1  UNL1        0.0975
      3 C           2.5493   12.4672    4.3999 C.3     1  UNL1       -0.0400
      4 H           2.4069   12.6618    5.4629 H       1  UNL1        0.0250
      5 H           1.6953   12.8574    3.8473 H       1  UNL1        0.0250
      6 H           2.6248   11.3931    4.2301 H       1  UNL1        0.0250
@<TRIPOS>BOND
     1     1     2    1
     2     5     3    1
     3     2     3    1
     4     6     3    1
     5     3     4    1
