@<TRIPOS>MOLECULE
1
 6 5 0 0 0
SMALL
GASTEIGER

@<TRIPOS>ATOM
      1 N           5.9299   14.7437    1.5003 N.3     1  UNL1       -0.1324
      2 C           5.8039   15.0055    0.3831 C.3     1  UNL1        0.0975
      3 C           5.6387   15.3360   -1.0012 C.3     1  UNL1       -0.0400
      4 H           6.5609   15.7799   -1.3752 H       1  UNL1        0.0250
      5 H           5.4233   14.4337   -1.5744 H       1  UNL1        0.0250
      6 H           4.8211   16.0480   -1.1148 H       1  UNL1        0.0250
@<TRIPOS>BOND
     1     5     3    1
     2     4     3    1
     3     6     3    1
     4     3     2    1
     5     2     1    1
