@<TRIPOS>MOLECULE
1
 14 13 0 0 0
SMALL
GASTEIGER

@<TRIPOS>ATOM
      1 N           7.0692    2.2313    2.2033 N.3     1  UNL1       -0.1371
      2 C           7.7736    1.4707    1.2365 C.3     1  UNL1        0.0466
      3 C           8.0631    2.3042   -0.0361 C.3     1  UNL1       -0.0443
      4 C           9.1380    0.9837    1.7921 C.3     1  UNL1       -0.0443
      5 C           6.9807    0.2099    0.8073 C.3     1  UNL1       -0.0443
      6 H           8.5880    1.6975   -0.7716 H       1  UNL1        0.0248
      7 H           8.6775    3.1662    0.2115 H       1  UNL1        0.0248
      8 H           7.1298    2.6562   -0.4655 H       1  UNL1        0.0248
      9 H           9.6386    0.3542    1.0588 H       1  UNL1        0.0248
     10 H           9.7824    1.8328    2.0095 H       1  UNL1        0.0248
     11 H           8.9850    0.4078    2.7030 H       1  UNL1        0.0248
     12 H           7.5985   -0.4324    0.1822 H       1  UNL1        0.0248
     13 H           6.6695   -0.3410    1.6901 H       1  UNL1        0.0248
     14 H           6.0979    0.4911    0.2396 H       1  UNL1        0.0248
@<TRIPOS>BOND
     1     6     3    1
     2     8     3    1
     3     3     7    1
     4     3     2    1
     5    12     5    1
     6    14     5    1
     7     5     2    1
     8     5    13    1
     9     9     4    1
    10     2     4    1
    11     2     1    1
    12     4    10    1
    13     4    11    1
