@<TRIPOS>MOLECULE
1
 12 12 0 0 0
SMALL
GASTEIGER

@<TRIPOS>ATOM
      1 N           2.4075    6.7957   -1.0350 N.pl3   1  UNL1       -0.1294
      2 C           1.9619    6.0733   -2.0737 C.ar    1  UNL1        0.0724
      3 C           1.8888    6.6411   -3.3605 C.ar    1  UNL1       -0.0372
      4 H           2.2014    7.6683   -3.4830 H       1  UNL1        0.0637
      5 C           1.4415    5.9071   -4.4372 C.ar    1  UNL1       -0.0599
      6 H           1.3998    6.3651   -5.4157 H       1  UNL1        0.0618
      7 C           1.0419    4.5889   -4.2761 C.ar    1  UNL1       -0.0616
      8 H           0.6886    4.0182   -5.1218 H       1  UNL1        0.0618
      9 C           1.1019    4.0111   -3.0174 C.ar    1  UNL1       -0.0599
     10 H           0.7940    2.9833   -2.8830 H       1  UNL1        0.0618
     11 C           1.5553    4.7322   -1.9336 C.ar    1  UNL1       -0.0372
     12 H           1.6050    4.2720   -0.9564 H       1  UNL1        0.0637
@<TRIPOS>BOND
     1     6     5    1
     2     8     7    1
     3     5     7   ar
     4     5     3   ar
     5     7     9   ar
     6     4     3    1
     7     3     2   ar
     8     9    10    1
     9     9    11   ar
    10     2    11   ar
    11     2     1    1
    12    11    12    1
