@<TRIPOS>MOLECULE
1
 12 12 0 0 0
SMALL
GASTEIGER

@<TRIPOS>ATOM
      1 N           2.7787    0.9371    6.0188 N.pl3   1  UNL1       -0.1294
      2 C           3.3959    1.7860    6.8586 C.ar    1  UNL1        0.0724
      3 C           3.7453    1.4367    8.1727 C.ar    1  UNL1       -0.0372
      4 H           3.5063    0.4436    8.5252 H       1  UNL1        0.0637
      5 C           4.3753    2.3462    8.9969 C.ar    1  UNL1       -0.0599
      6 H           4.6364    2.0586   10.0057 H       1  UNL1        0.0618
      7 C           4.6726    3.6221    8.5455 C.ar    1  UNL1       -0.0616
      8 H           5.1659    4.3287    9.1957 H       1  UNL1        0.0618
      9 C           4.3262    3.9863    7.2523 C.ar    1  UNL1       -0.0599
     10 H           4.5470    4.9824    6.8956 H       1  UNL1        0.0618
     11 C           3.6983    3.0884    6.4174 C.ar    1  UNL1       -0.0372
     12 H           3.4116    3.3625    5.4079 H       1  UNL1        0.0637
@<TRIPOS>BOND
     1    12    11    1
     2     1     2    1
     3    11     2   ar
     4    11     9   ar
     5     2     3   ar
     6    10     9    1
     7     9     7   ar
     8     3     4    1
     9     3     5   ar
    10     7     5   ar
    11     7     8    1
    12     5     6    1
