@<TRIPOS>MOLECULE
1
 30 30 0 0 0
SMALL
GASTEIGER

@<TRIPOS>ATOM
      1 N           9.4603    8.1504    3.7771 N.pl3   1  UNL1       -0.1288
      2 C           9.8780    6.9362    4.1424 C.ar    1  UNL1        0.0792
      3 C           8.9673    5.8457    4.1316 C.ar    1  UNL1       -0.0200
      4 C           9.4095    4.5973    4.5234 C.ar    1  UNL1       -0.0564
      5 H           8.7242    3.7639    4.5333 H       1  UNL1        0.0621
      6 C          10.7282    4.3905    4.8940 C.ar    1  UNL1       -0.0611
      7 H          11.0586    3.4041    5.1852 H       1  UNL1        0.0618
      8 C          11.6250    5.4443    4.8860 C.ar    1  UNL1       -0.0564
      9 H          12.6516    5.2619    5.1659 H       1  UNL1        0.0621
     10 C          11.2241    6.7193    4.5315 C.ar    1  UNL1       -0.0200
     11 C           7.5432    6.1108    3.7167 C.3     1  UNL1       -0.0196
     12 H           7.5688    6.9124    2.9687 H       1  UNL1        0.0344
     13 C           6.7467    6.6301    4.9182 C.3     1  UNL1       -0.0586
     14 H           5.7228    6.8368    4.6167 H       1  UNL1        0.0235
     15 H           7.1922    7.5524    5.2926 H       1  UNL1        0.0235
     16 H           6.7390    5.8930    5.7195 H       1  UNL1        0.0235
     17 C           6.8454    4.9024    3.0968 C.3     1  UNL1       -0.0586
     18 H           5.9142    5.2237    2.6348 H       1  UNL1        0.0235
     19 H           6.6097    4.1522    3.8485 H       1  UNL1        0.0235
     20 H           7.4709    4.4481    2.3318 H       1  UNL1        0.0235
     21 C          12.1939    7.8741    4.4943 C.3     1  UNL1       -0.0196
     22 H          11.6025    8.8062    4.5352 H       1  UNL1        0.0344
     23 C          13.1663    7.8714    5.6723 C.3     1  UNL1       -0.0586
     24 H          12.6261    7.8184    6.6152 H       1  UNL1        0.0235
     25 H          13.7637    8.7807    5.6599 H       1  UNL1        0.0235
     26 H          13.8484    7.0268    5.6151 H       1  UNL1        0.0235
     27 C          12.9571    7.8621    3.1663 C.3     1  UNL1       -0.0586
     28 H          12.2610    7.9210    2.3317 H       1  UNL1        0.0235
     29 H          13.5360    6.9453    3.0714 H       1  UNL1        0.0235
     30 H          13.6326    8.7141    3.1101 H       1  UNL1        0.0235
@<TRIPOS>BOND
     1    28    27    1
     2    20    17    1
     3    18    17    1
     4    12    11    1
     5    29    27    1
     6    17    11    1
     7    17    19    1
     8    30    27    1
     9    27    21    1
    10    11     3    1
    11    11    13    1
    12     1     2    1
    13     3     2   ar
    14     3     4   ar
    15     2    10   ar
    16    21    10    1
    17    21    22    1
    18    21    23    1
    19     4     5    1
    20     4     6   ar
    21    10     8   ar
    22    14    13    1
    23     8     6   ar
    24     8     9    1
    25     6     7    1
    26    13    15    1
    27    13    16    1
    28    26    23    1
    29    25    23    1
    30    23    24    1
