@<TRIPOS>MOLECULE
1
 30 30 0 0 0
SMALL
GASTEIGER

@<TRIPOS>ATOM
      1 N           7.3777    9.5875    2.4887 N.pl3   1  UNL1       -0.1288
      2 C           6.3203    8.9554    1.9638 C.ar    1  UNL1        0.0792
      3 C           5.0518    9.0393    2.5888 C.ar    1  UNL1       -0.0200
      4 C           3.9762    8.3773    2.0262 C.ar    1  UNL1       -0.0564
      5 H           3.0052    8.4425    2.4925 H       1  UNL1        0.0621
      6 C           4.1201    7.6305    0.8707 C.ar    1  UNL1       -0.0611
      7 H           3.2680    7.1215    0.4447 H       1  UNL1        0.0618
      8 C           5.3596    7.5378    0.2613 C.ar    1  UNL1       -0.0564
      9 H           5.4571    6.9511   -0.6386 H       1  UNL1        0.0621
     10 C           6.4672    8.1761    0.7869 C.ar    1  UNL1       -0.0200
     11 C           4.9033    9.8974    3.8240 C.3     1  UNL1       -0.0196
     12 H           5.8670    9.8897    4.3509 H       1  UNL1        0.0344
     13 C           3.8306    9.4065    4.7942 C.3     1  UNL1       -0.0586
     14 H           3.9540    8.3472    5.0043 H       1  UNL1        0.0235
     15 H           2.8318    9.5704    4.3954 H       1  UNL1        0.0235
     16 H           3.9117    9.9518    5.7321 H       1  UNL1        0.0235
     17 C           4.6006   11.3379    3.3970 C.3     1  UNL1       -0.0586
     18 H           5.3805   11.7004    2.7307 H       1  UNL1        0.0235
     19 H           4.5463   11.9879    4.2677 H       1  UNL1        0.0235
     20 H           3.6503   11.3813    2.8672 H       1  UNL1        0.0235
     21 C           7.8259    8.1067    0.1316 C.3     1  UNL1       -0.0196
     22 H           8.5817    8.1011    0.9353 H       1  UNL1        0.0344
     23 C           8.0385    6.8547   -0.7158 C.3     1  UNL1       -0.0586
     24 H           9.0844    6.7874   -1.0071 H       1  UNL1        0.0235
     25 H           7.4387    6.8850   -1.6230 H       1  UNL1        0.0235
     26 H           7.7807    5.9625   -0.1504 H       1  UNL1        0.0235
     27 C           8.0451    9.3693   -0.7108 C.3     1  UNL1       -0.0586
     28 H           9.0441    9.3676   -1.1412 H       1  UNL1        0.0235
     29 H           7.9422   10.2568   -0.0861 H       1  UNL1        0.0235
     30 H           7.3116    9.4189   -1.5142 H       1  UNL1        0.0235
@<TRIPOS>BOND
     1    25    23    1
     2    30    27    1
     3    28    27    1
     4    24    23    1
     5    23    26    1
     6    23    21    1
     7    27    29    1
     8    27    21    1
     9     9     8    1
    10    21    10    1
    11    21    22    1
    12     8    10   ar
    13     8     6   ar
    14     7     6    1
    15    10     2   ar
    16     6     4   ar
    17     2     1    1
    18     2     3   ar
    19     4     5    1
    20     4     3   ar
    21     3    11    1
    22    18    17    1
    23    20    17    1
    24    17    11    1
    25    17    19    1
    26    11    12    1
    27    11    13    1
    28    15    13    1
    29    13    14    1
    30    13    16    1
