@<TRIPOS>MOLECULE
1
 14 13 0 0 0
SMALL
GASTEIGER

@<TRIPOS>ATOM
      1 N          -8.7289   -5.5412   26.7862 N.3     1  UNL1       -0.1371
      2 C         -10.1148   -5.4893   26.5058 C.3     1  UNL1        0.0466
      3 C         -10.9221   -4.8010   27.6233 C.3     1  UNL1       -0.0443
      4 C         -10.3104   -4.7045   25.1889 C.3     1  UNL1       -0.0443
      5 C         -10.6418   -6.9242   26.2948 C.3     1  UNL1       -0.0443
      6 H         -11.9582   -4.6816   27.3148 H       1  UNL1        0.0248
      7 H         -10.8947   -5.3966   28.5307 H       1  UNL1        0.0248
      8 H         -10.4952   -3.8265   27.8395 H       1  UNL1        0.0248
      9 H         -11.3471   -4.7547   24.8650 H       1  UNL1        0.0248
     10 H         -10.0371   -3.6623   25.3336 H       1  UNL1        0.0248
     11 H          -9.6717   -5.1394   24.4229 H       1  UNL1        0.0248
     12 H         -11.6942   -6.9084   26.0219 H       1  UNL1        0.0248
     13 H         -10.5126   -7.5046   27.2027 H       1  UNL1        0.0248
     14 H         -10.0706   -7.3970   25.5005 H       1  UNL1        0.0248
@<TRIPOS>BOND
     1    11     4    1
     2     9     4    1
     3     4    10    1
     4     4     2    1
     5    14     5    1
     6    12     5    1
     7     5     2    1
     8     5    13    1
     9     2     1    1
    10     2     3    1
    11     6     3    1
    12     3     8    1
    13     3     7    1
