@<TRIPOS>MOLECULE
1
 6 5 0 0 0
SMALL
GASTEIGER

@<TRIPOS>ATOM
      1 N           5.7297    5.3176   11.0498 N.3     1  UNL1       -0.1324
      2 C           4.7845    4.8726   10.5567 C.3     1  UNL1        0.0975
      3 C           3.6121    4.3129    9.9491 C.3     1  UNL1       -0.0400
      4 H           3.3232    3.4056   10.4805 H       1  UNL1        0.0250
      5 H           3.8164    4.0739    8.9050 H       1  UNL1        0.0250
      6 H           2.7961    5.0343   10.0027 H       1  UNL1        0.0250
@<TRIPOS>BOND
     1     5     3    1
     2     3     6    1
     3     3     4    1
     4     3     2    1
     5     2     1    1
