@<TRIPOS>MOLECULE
2
 25 25 0 0 0
SMALL
GASTEIGER

@<TRIPOS>ATOM
      1 S           8.2407   13.1918   11.7553 S.3     1  UNL1       -0.1173
      2 N           7.7179   10.5121   12.8382 N.pl3   1  UNL1       -0.1282
      3 C           7.4908   11.4497   13.7456 C.ar    1  UNL1        0.0857
      4 C           7.6541   12.8123   13.3918 C.ar    1  UNL1        0.0328
      5 C           7.3257   13.8188   14.2775 C.ar    1  UNL1       -0.0464
      6 H           7.4171   14.8468   13.9609 H       1  UNL1        0.0629
      7 C           6.8808   13.5124   15.5533 C.ar    1  UNL1       -0.0606
      8 H           6.6307   14.3038   16.2431 H       1  UNL1        0.0618
      9 C           6.7556   12.1829   15.9338 C.ar    1  UNL1       -0.0598
     10 H           6.4137   11.9398   16.9300 H       1  UNL1        0.0618
     11 C           7.0494   11.1665   15.0530 C.ar    1  UNL1       -0.0361
     12 H           6.9352   10.1276   15.3329 H       1  UNL1        0.0637
     13 C          10.0821   13.3868   12.0754 C.3     1  UNL1        0.0129
     14 C          10.6650   13.8860   10.7604 C.3     1  UNL1       -0.0506
     15 H          11.7391   14.0349   10.8605 H       1  UNL1        0.0243
     16 H          10.2052   14.8302   10.4792 H       1  UNL1        0.0243
     17 H          10.4816   13.1636    9.9709 H       1  UNL1        0.0243
     18 C          10.3157   14.4058   13.1812 C.3     1  UNL1       -0.0506
     19 H          11.3852   14.5671   13.3078 H       1  UNL1        0.0243
     20 H           9.9065   14.0586   14.1269 H       1  UNL1        0.0243
     21 H           9.8502   15.3544   12.9263 H       1  UNL1        0.0243
     22 C          10.6598   12.0300   12.4477 C.3     1  UNL1       -0.0506
     23 H          11.7409   12.1006   12.5676 H       1  UNL1        0.0243
     24 H          10.4382   11.3006   11.6638 H       1  UNL1        0.0243
     25 H          10.2355   11.6718   13.3854 H       1  UNL1        0.0243
@<TRIPOS>BOND
     1    17    14    1
     2    16    14    1
     3    14    15    1
     4    14    13    1
     5    24    22    1
     6     1    13    1
     7     1     4    1
     8    13    22    1
     9    13    18    1
    10    22    23    1
    11    22    25    1
    12     2     3    1
    13    21    18    1
    14    18    19    1
    15    18    20    1
    16     4     3   ar
    17     4     5   ar
    18     3    11   ar
    19     6     5    1
    20     5     7   ar
    21    11    12    1
    22    11     9   ar
    23     7     9   ar
    24     7     8    1
    25     9    10    1
