@<TRIPOS>MOLECULE
1
 18 18 0 0 0
SMALL
GASTEIGER

@<TRIPOS>ATOM
      1 N           1.7368    4.5782    2.2293 N.pl3   1  UNL1       -0.1288
      2 C           2.6547    3.8267    1.6160 C.ar    1  UNL1        0.0782
      3 C           3.3774    2.8696    2.3699 C.ar    1  UNL1       -0.0257
      4 C           4.3267    2.0870    1.7419 C.ar    1  UNL1       -0.0570
      5 H           4.8793    1.3611    2.3219 H       1  UNL1        0.0621
      6 C           4.5750    2.2153    0.3846 C.ar    1  UNL1       -0.0611
      7 H           5.3198    1.5955   -0.0914 H       1  UNL1        0.0618
      8 C           3.8588    3.1380   -0.3588 C.ar    1  UNL1       -0.0570
      9 H           4.0454    3.2337   -1.4194 H       1  UNL1        0.0621
     10 C           2.9032    3.9453    0.2303 C.ar    1  UNL1       -0.0257
     11 C           3.0859    2.7349    3.8328 C.3     1  UNL1       -0.0378
     12 H           3.6577    1.9195    4.2688 H       1  UNL1        0.0278
     13 H           2.0154    2.5437    3.9863 H       1  UNL1        0.0278
     14 H           3.3421    3.6624    4.3553 H       1  UNL1        0.0278
     15 C           2.1309    4.9505   -0.5685 C.3     1  UNL1       -0.0378
     16 H           2.2428    4.7668   -1.6342 H       1  UNL1        0.0278
     17 H           2.4856    5.9593   -0.3515 H       1  UNL1        0.0278
     18 H           1.0720    4.9123   -0.3057 H       1  UNL1        0.0278
@<TRIPOS>BOND
     1    16    15    1
     2     9     8    1
     3    15    17    1
     4    15    18    1
     5    15    10    1
     6     8    10   ar
     7     8     6   ar
     8     7     6    1
     9    10     2   ar
    10     6     4   ar
    11     2     1    1
    12     2     3   ar
    13     4     5    1
    14     4     3   ar
    15     3    11    1
    16    11    13    1
    17    11    12    1
    18    11    14    1
