@<TRIPOS>MOLECULE
2
 25 25 0 0 0
SMALL
GASTEIGER

@<TRIPOS>ATOM
      1 S           5.5797   11.3200    7.5556 S.3     1  UNL1       -0.1173
      2 N           6.3139   10.6329   10.4133 N.pl3   1  UNL1       -0.1282
      3 C           5.2271   11.3920   10.2740 C.ar    1  UNL1        0.0857
      4 C           4.7367   11.8412    9.0264 C.ar    1  UNL1        0.0328
      5 C           3.6632   12.7140    8.9704 C.ar    1  UNL1       -0.0464
      6 H           3.3468   13.1038    8.0152 H       1  UNL1        0.0629
      7 C           2.9997   13.0976   10.1212 C.ar    1  UNL1       -0.0606
      8 H           2.1581   13.7709   10.0578 H       1  UNL1        0.0618
      9 C           3.4292   12.6223   11.3541 C.ar    1  UNL1       -0.0598
     10 H           2.9131   12.9176   12.2561 H       1  UNL1        0.0618
     11 C           4.5228   11.7927   11.4307 C.ar    1  UNL1       -0.0361
     12 H           4.8949   11.4256   12.3810 H       1  UNL1        0.0637
     13 C           4.2642   10.4840    6.5089 C.3     1  UNL1        0.0129
     14 C           5.0556    9.5335    5.6143 C.3     1  UNL1       -0.0506
     15 H           4.3816    8.9941    4.9507 H       1  UNL1        0.0243
     16 H           5.6067    8.8137    6.2130 H       1  UNL1        0.0243
     17 H           5.7666   10.0921    5.0098 H       1  UNL1        0.0243
     18 C           3.3037    9.7146    7.4014 C.3     1  UNL1       -0.0506
     19 H           2.6103    9.1417    6.7864 H       1  UNL1        0.0243
     20 H           2.7277   10.3907    8.0300 H       1  UNL1        0.0243
     21 H           3.8495    9.0302    8.0462 H       1  UNL1        0.0243
     22 C           3.5321   11.5047    5.6460 C.3     1  UNL1       -0.0506
     23 H           2.9266   10.9890    4.9014 H       1  UNL1        0.0243
     24 H           4.2446   12.1442    5.1303 H       1  UNL1        0.0243
     25 H           2.8707   12.1276    6.2413 H       1  UNL1        0.0243
@<TRIPOS>BOND
     1    23    22    1
     2    15    14    1
     3    17    14    1
     4    24    22    1
     5    14    16    1
     6    14    13    1
     7    22    25    1
     8    22    13    1
     9    13    18    1
    10    13     1    1
    11    19    18    1
    12    18    20    1
    13    18    21    1
    14     1     4    1
    15     6     5    1
    16     5     4   ar
    17     5     7   ar
    18     4     3   ar
    19     8     7    1
    20     7     9   ar
    21     3     2    1
    22     3    11   ar
    23     9    11   ar
    24     9    10    1
    25    11    12    1
