@<TRIPOS>MOLECULE
1
 18 18 0 0 0
SMALL
GASTEIGER

@<TRIPOS>ATOM
      1 N          -0.7001    3.5859    3.3605 N.pl3   1  UNL1       -0.1288
      2 C          -1.3074    2.4003    3.2378 C.ar    1  UNL1        0.0782
      3 C          -1.2971    1.7319    1.9884 C.ar    1  UNL1       -0.0257
      4 C          -1.9647    0.5279    1.8604 C.ar    1  UNL1       -0.0570
      5 H          -1.9620    0.0250    0.9035 H       1  UNL1        0.0621
      6 C          -2.6189   -0.0479    2.9372 C.ar    1  UNL1       -0.0611
      7 H          -3.1305   -0.9913    2.8199 H       1  UNL1        0.0618
      8 C          -2.6014    0.5854    4.1686 C.ar    1  UNL1       -0.0570
      9 H          -3.0958    0.1287    5.0147 H       1  UNL1        0.0621
     10 C          -1.9613    1.7989    4.3378 C.ar    1  UNL1       -0.0257
     11 C          -0.5487    2.3327    0.8391 C.3     1  UNL1       -0.0378
     12 H          -0.9027    1.9301   -0.1071 H       1  UNL1        0.0278
     13 H           0.5168    2.1103    0.9336 H       1  UNL1        0.0278
     14 H          -0.6525    3.4228    0.8419 H       1  UNL1        0.0278
     15 C          -1.9394    2.4855    5.6710 C.3     1  UNL1       -0.0378
     16 H          -2.1550    1.7809    6.4709 H       1  UNL1        0.0278
     17 H          -2.6883    3.2787    5.7016 H       1  UNL1        0.0278
     18 H          -0.9625    2.9386    5.8500 H       1  UNL1        0.0278
@<TRIPOS>BOND
     1    12    11    1
     2    11    14    1
     3    11    13    1
     4    11     3    1
     5     5     4    1
     6     4     3   ar
     7     4     6   ar
     8     3     2   ar
     9     7     6    1
    10     6     8   ar
    11     2     1    1
    12     2    10   ar
    13     8    10   ar
    14     8     9    1
    15    10    15    1
    16    15    17    1
    17    15    18    1
    18    15    16    1
