@<TRIPOS>MOLECULE
1
 12 12 0 0 0
SMALL
GASTEIGER

@<TRIPOS>ATOM
      1 N          10.0846   -0.2643    1.7189 N.pl3   1  UNL1       -0.1294
      2 C          10.5929   -1.4333    1.2973 C.ar    1  UNL1        0.0724
      3 C          11.6166   -1.4796    0.3359 C.ar    1  UNL1       -0.0372
      4 C          12.1309   -2.6877   -0.0839 C.ar    1  UNL1       -0.0599
      5 C          11.6459   -3.8791    0.4332 C.ar    1  UNL1       -0.0616
      6 C          10.6353   -3.8497    1.3823 C.ar    1  UNL1       -0.0599
      7 C          10.1125   -2.6495    1.8134 C.ar    1  UNL1       -0.0372
      8 H          11.9880   -0.5435   -0.0603 H       1  UNL1        0.0637
      9 H          12.9190   -2.7036   -0.8236 H       1  UNL1        0.0618
     10 H          12.0520   -4.8223    0.1001 H       1  UNL1        0.0618
     11 H          10.2530   -4.7750    1.7898 H       1  UNL1        0.0618
     12 H           9.3242   -2.6133    2.5549 H       1  UNL1        0.0637
@<TRIPOS>BOND
     1     9     4    1
     2     4     3   ar
     3     4     5   ar
     4     8     3    1
     5    10     5    1
     6     3     2   ar
     7     5     6   ar
     8     2     1    1
     9     2     7   ar
    10     6    11    1
    11     6     7   ar
    12     7    12    1
