@<TRIPOS>MOLECULE
1
 12 12 0 0 0
SMALL
GASTEIGER

@<TRIPOS>ATOM
      1 N           8.2158    1.1900    4.5160 N.pl3   1  UNL1       -0.1294
      2 C           9.0034    0.7203    5.4950 C.ar    1  UNL1        0.0724
      3 C           8.6028    0.8015    6.8417 C.ar    1  UNL1       -0.0372
      4 C           9.4047    0.3117    7.8493 C.ar    1  UNL1       -0.0599
      5 C          10.6288   -0.2710    7.5559 C.ar    1  UNL1       -0.0616
      6 C          11.0420   -0.3570    6.2359 C.ar    1  UNL1       -0.0599
      7 C          10.2487    0.1286    5.2178 C.ar    1  UNL1       -0.0372
      8 H           7.6470    1.2615    7.0585 H       1  UNL1        0.0637
      9 H           9.0765    0.3836    8.8768 H       1  UNL1        0.0618
     10 H          11.2546   -0.6523    8.3487 H       1  UNL1        0.0618
     11 H          11.9954   -0.8082    5.9992 H       1  UNL1        0.0618
     12 H          10.5731    0.0649    4.1881 H       1  UNL1        0.0637
@<TRIPOS>BOND
     1    12     7    1
     2     1     2    1
     3     7     2   ar
     4     7     6   ar
     5     2     3   ar
     6    11     6    1
     7     6     5   ar
     8     3     8    1
     9     3     4   ar
    10     5     4   ar
    11     5    10    1
    12     4     9    1
