@<TRIPOS>MOLECULE
1
 15 14 0 0 0
SMALL
GASTEIGER

@<TRIPOS>ATOM
      1 N           3.3678    2.1590   10.6382 N.3     1  UNL1       -0.1315
      2 C           2.3566    2.7016   10.5430 C.3     1  UNL1        0.1066
      3 C           1.0752    3.3460   10.4346 C.3     1  UNL1       -0.0126
      4 C           1.0532    4.1624    9.1345 C.3     1  UNL1       -0.0582
      5 C           0.9018    4.2648   11.6526 C.3     1  UNL1       -0.0582
      6 C          -0.0077    2.2563   10.4164 C.3     1  UNL1       -0.0582
      7 H           0.0982    4.6743    9.0471 H       1  UNL1        0.0236
      8 H           1.1831    3.5169    8.2688 H       1  UNL1        0.0236
      9 H           1.8478    4.9035    9.1410 H       1  UNL1        0.0236
     10 H          -0.0646    4.7590   11.5956 H       1  UNL1        0.0236
     11 H           1.6811    5.0208   11.6745 H       1  UNL1        0.0236
     12 H           0.9512    3.6946   12.5765 H       1  UNL1        0.0236
     13 H          -0.9854    2.7244   10.3354 H       1  UNL1        0.0236
     14 H           0.0213    1.6699   11.3317 H       1  UNL1        0.0236
     15 H           0.1289    1.5864    9.5706 H       1  UNL1        0.0236
@<TRIPOS>BOND
     1     8     4    1
     2     7     4    1
     3     4     9    1
     4     4     3    1
     5    15     6    1
     6    13     6    1
     7     6     3    1
     8     6    14    1
     9     3     2    1
    10     3     5    1
    11     2     1    1
    12    10     5    1
    13     5    11    1
    14     5    12    1
