@<TRIPOS>MOLECULE
1
 24 25 0 0 0
SMALL
GASTEIGER

@<TRIPOS>ATOM
      1 N           3.4357    5.3557   14.9151 N.3     1  UNL1       -0.0117
      2 N           2.1139    5.3301   15.0706 N.pl3   1  UNL1       -0.2010
      3 C           1.6222    5.2479   16.3909 C.ar    1  UNL1        0.0530
      4 C           0.7432    4.2329   16.7770 C.ar    1  UNL1       -0.0389
      5 C           0.3501    4.1250   18.0967 C.ar    1  UNL1       -0.0600
      6 C           0.8222    5.0180   19.0468 C.ar    1  UNL1       -0.0616
      7 C           1.6873    6.0329   18.6662 C.ar    1  UNL1       -0.0600
      8 C           2.0854    6.1514   17.3491 C.ar    1  UNL1       -0.0389
      9 C           1.2400    5.4190   13.9963 C.ar    1  UNL1        0.0530
     10 C           1.7462    5.3286   12.6921 C.ar    1  UNL1       -0.0389
     11 C           0.9015    5.4187   11.6077 C.ar    1  UNL1       -0.0600
     12 C          -0.4626    5.5990   11.7865 C.ar    1  UNL1       -0.0616
     13 C          -0.9661    5.7143   13.0737 C.ar    1  UNL1       -0.0600
     14 C          -0.1336    5.6353   14.1709 C.ar    1  UNL1       -0.0389
     15 H           0.3762    3.5341   16.0383 H       1  UNL1        0.0637
     16 H          -0.3251    3.3341   18.3897 H       1  UNL1        0.0618
     17 H           0.5121    4.9263   20.0766 H       1  UNL1        0.0618
     18 H           2.0428    6.7415   19.4001 H       1  UNL1        0.0618
     19 H           2.7411    6.9497   17.0272 H       1  UNL1        0.0637
     20 H           2.8126    5.2093   12.5738 H       1  UNL1        0.0637
     21 H           1.3088    5.3474   10.6090 H       1  UNL1        0.0618
     22 H          -1.1234    5.6632   10.9354 H       1  UNL1        0.0618
     23 H          -2.0236    5.8794   13.2241 H       1  UNL1        0.0618
     24 H          -0.5428    5.7576   15.1626 H       1  UNL1        0.0637
@<TRIPOS>BOND
     1    21    11    1
     2    22    12    1
     3    11    12   ar
     4    11    10   ar
     5    12    13   ar
     6    20    10    1
     7    10     9   ar
     8    13    23    1
     9    13    14   ar
    10     9    14   ar
    11     9     2    1
    12    14    24    1
    13     1     2    1
    14     2     3    1
    15    15     4    1
    16     3     4   ar
    17     3     8   ar
    18     4     5   ar
    19    19     8    1
    20     8     7   ar
    21     5    16    1
    22     5     6   ar
    23     7     6   ar
    24     7    18    1
    25     6    17    1
