@<TRIPOS>MOLECULE
1
 24 25 0 0 0
SMALL
GASTEIGER

@<TRIPOS>ATOM
      1 N          -2.3350   -0.3445    5.1073 N.3     1  UNL1       -0.0117
      2 N          -2.7738    0.0934    6.2850 N.pl3   1  UNL1       -0.2010
      3 C          -2.3598    1.3446    6.7518 C.ar    1  UNL1        0.0530
      4 C          -2.1693    1.6034    8.1134 C.ar    1  UNL1       -0.0389
      5 C          -1.7196    2.8409    8.5260 C.ar    1  UNL1       -0.0600
      6 C          -1.4419    3.8386    7.6034 C.ar    1  UNL1       -0.0616
      7 C          -1.6065    3.5791    6.2513 C.ar    1  UNL1       -0.0600
      8 C          -2.0562    2.3472    5.8248 C.ar    1  UNL1       -0.0389
      9 C          -3.5993   -0.7275    7.0584 C.ar    1  UNL1        0.0530
     10 C          -3.5048   -2.1149    6.9081 C.ar    1  UNL1       -0.0389
     11 C          -4.3142   -2.9542    7.6445 C.ar    1  UNL1       -0.0600
     12 C          -5.2387   -2.4331    8.5369 C.ar    1  UNL1       -0.0616
     13 C          -5.3578   -1.0572    8.6683 C.ar    1  UNL1       -0.0600
     14 C          -4.5542   -0.2059    7.9375 C.ar    1  UNL1       -0.0389
     15 H          -2.3535    0.8265    8.8405 H       1  UNL1        0.0637
     16 H          -1.5721    3.0274    9.5801 H       1  UNL1        0.0618
     17 H          -1.0928    4.8045    7.9359 H       1  UNL1        0.0618
     18 H          -1.3890    4.3503    5.5258 H       1  UNL1        0.0618
     19 H          -2.1838    2.1227    4.7739 H       1  UNL1        0.0637
     20 H          -2.7950   -2.4976    6.1852 H       1  UNL1        0.0637
     21 H          -4.2229   -4.0242    7.5245 H       1  UNL1        0.0618
     22 H          -5.8697   -3.0905    9.1157 H       1  UNL1        0.0618
     23 H          -6.0945   -0.6435    9.3420 H       1  UNL1        0.0618
     24 H          -4.6738    0.8634    8.0291 H       1  UNL1        0.0637
@<TRIPOS>BOND
     1    19     8    1
     2     1     2    1
     3    18     7    1
     4     8     7   ar
     5     8     3   ar
     6    20    10    1
     7     7     6   ar
     8     2     3    1
     9     2     9    1
    10     3     4   ar
    11    10     9   ar
    12    10    11   ar
    13     9    14   ar
    14    21    11    1
    15     6    17    1
    16     6     5   ar
    17    11    12   ar
    18    14    24    1
    19    14    13   ar
    20     4     5   ar
    21     4    15    1
    22     5    16    1
    23    12    13   ar
    24    12    22    1
    25    13    23    1
