@<TRIPOS>MOLECULE
1
 24 25 0 0 0
SMALL
GASTEIGER

@<TRIPOS>ATOM
      1 N           8.6716    3.8906   10.6891 N.3     1  UNL1       -0.0117
      2 N           9.0131    5.1569   10.9684 N.pl3   1  UNL1       -0.2010
      3 C          10.3545    5.4753   11.1513 C.ar    1  UNL1        0.0530
      4 C          11.2555    4.4481   11.4760 C.ar    1  UNL1       -0.0389
      5 C          12.5971    4.7208   11.6416 C.ar    1  UNL1       -0.0600
      6 C          13.0843    6.0077   11.4649 C.ar    1  UNL1       -0.0616
      7 C          12.2084    7.0168   11.0910 C.ar    1  UNL1       -0.0600
      8 C          10.8624    6.7633   10.9274 C.ar    1  UNL1       -0.0389
      9 C           8.0017    6.1179   11.0313 C.ar    1  UNL1        0.0530
     10 C           6.8321    5.9207   10.2842 C.ar    1  UNL1       -0.0389
     11 C           5.8010    6.8347   10.3502 C.ar    1  UNL1       -0.0600
     12 C           5.8941    7.9462   11.1749 C.ar    1  UNL1       -0.0616
     13 C           7.0280    8.1196   11.9541 C.ar    1  UNL1       -0.0600
     14 C           8.0710    7.2175   11.8945 C.ar    1  UNL1       -0.0389
     15 H          10.8630    3.4416   11.5752 H       1  UNL1        0.0637
     16 H          13.2723    3.9209   11.9097 H       1  UNL1        0.0618
     17 H          14.1341    6.2192   11.5990 H       1  UNL1        0.0618
     18 H          12.5832    8.0150   10.9146 H       1  UNL1        0.0618
     19 H          10.2050    7.5540   10.6000 H       1  UNL1        0.0637
     20 H           6.7672    5.0357    9.6633 H       1  UNL1        0.0637
     21 H           4.9140    6.6816    9.7522 H       1  UNL1        0.0618
     22 H           5.0870    8.6614   11.2219 H       1  UNL1        0.0618
     23 H           7.0952    8.9642   12.6250 H       1  UNL1        0.0618
     24 H           8.9318    7.3482   12.5328 H       1  UNL1        0.0637
@<TRIPOS>BOND
     1    20    10    1
     2    21    11    1
     3    10    11   ar
     4    10     9   ar
     5    11    12   ar
     6    19     8    1
     7     1     2    1
     8    18     7    1
     9     8     7   ar
    10     8     3   ar
    11     2     9    1
    12     2     3    1
    13     9    14   ar
    14     7     6   ar
    15     3     4   ar
    16    12    22    1
    17    12    13   ar
    18     6    17    1
    19     6     5   ar
    20     4    15    1
    21     4     5   ar
    22     5    16    1
    23    14    13   ar
    24    14    24    1
    25    13    23    1
