@<TRIPOS>MOLECULE
1
 14 13 0 0 0
SMALL
GASTEIGER

@<TRIPOS>ATOM
      1 N           2.2156    1.2796    3.5719 N.3     1  UNL1       -0.1371
      2 C           2.2363   -0.1014    3.8526 C.3     1  UNL1        0.0466
      3 C           3.6263   -0.5446    4.3663 C.3     1  UNL1       -0.0443
      4 C           1.8920   -0.9153    2.5856 C.3     1  UNL1       -0.0443
      5 C           1.1934   -0.4312    4.9420 C.3     1  UNL1       -0.0443
      6 H           3.8647   -0.0134    5.2837 H       1  UNL1        0.0248
      7 H           4.3988   -0.3308    3.6285 H       1  UNL1        0.0248
      8 H           3.6250   -1.6136    4.5662 H       1  UNL1        0.0248
      9 H           0.9523   -0.5550    2.1752 H       1  UNL1        0.0248
     10 H           1.7924   -1.9698    2.8325 H       1  UNL1        0.0248
     11 H           2.6717   -0.8040    1.8345 H       1  UNL1        0.0248
     12 H           0.2134   -0.0939    4.6134 H       1  UNL1        0.0248
     13 H           1.4547    0.0792    5.8659 H       1  UNL1        0.0248
     14 H           1.1618   -1.5029    5.1251 H       1  UNL1        0.0248
@<TRIPOS>BOND
     1    11     4    1
     2     9     4    1
     3     4    10    1
     4     4     2    1
     5     1     2    1
     6     7     3    1
     7     2     3    1
     8     2     5    1
     9     3     8    1
    10     3     6    1
    11    12     5    1
    12     5    14    1
    13     5    13    1
