@<TRIPOS>MOLECULE
1
 12 12 0 0 0
SMALL
GASTEIGER

@<TRIPOS>ATOM
      1 N           4.2644   28.4431    9.0536 N.pl3   1  UNL1       -0.1294
      2 C           3.6150   29.1787    9.9513 C.ar    1  UNL1        0.0724
      3 C           2.9786   28.5607   11.0518 C.ar    1  UNL1       -0.0372
      4 H           3.0171   27.4804   11.1114 H       1  UNL1        0.0637
      5 C           2.3152   29.3007   12.0036 C.ar    1  UNL1       -0.0599
      6 H           1.8395   28.7978   12.8346 H       1  UNL1        0.0618
      7 C           2.2464   30.6827   11.9021 C.ar    1  UNL1       -0.0616
      8 H           1.7261   31.2601   12.6510 H       1  UNL1        0.0618
      9 C           2.8407   31.3106   10.8177 C.ar    1  UNL1       -0.0599
     10 H           2.7778   32.3856   10.7203 H       1  UNL1        0.0618
     11 C           3.5107   30.5840    9.8586 C.ar    1  UNL1       -0.0372
     12 H           3.9527   31.0787    9.0070 H       1  UNL1        0.0637
@<TRIPOS>BOND
     1    12    11    1
     2     1     2    1
     3    11     2   ar
     4    11     9   ar
     5     2     3   ar
     6    10     9    1
     7     9     7   ar
     8     3     4    1
     9     3     5   ar
    10     7     5   ar
    11     7     8    1
    12     5     6    1
