@<TRIPOS>MOLECULE
1
 6 5 0 0 0
SMALL
GASTEIGER

@<TRIPOS>ATOM
      1 N           4.7133   -0.6642   -2.2665 N.3     1  UNL1       -0.1324
      2 C           4.5833   -1.7778   -2.4975 C.3     1  UNL1        0.0975
      3 C           4.4295   -3.1709   -2.7590 C.3     1  UNL1       -0.0400
      4 H           4.8582   -3.4076   -3.7324 H       1  UNL1        0.0250
      5 H           3.3675   -3.4164   -2.7585 H       1  UNL1        0.0250
      6 H           4.9375   -3.7482   -1.9868 H       1  UNL1        0.0250
@<TRIPOS>BOND
     1     4     3    1
     2     3     5    1
     3     3     2    1
     4     3     6    1
     5     2     1    1
