@<TRIPOS>MOLECULE
3
 24 24 0 0 0
SMALL
GASTEIGER

@<TRIPOS>ATOM
      1 SI          6.7028    3.4877    4.6489 Si      1  UNL1        0.0000
      2 C           8.4269    2.7079    4.9144 C.3     1  UNL1        0.0000
      3 N           4.7891    1.9817   -0.8892 N.pl3   1  UNL1        0.0000
      4 C           5.2036    2.3204    0.3310 C.ar    1  UNL1        0.0000
      5 C           5.3901    1.3441    1.3267 C.ar    1  UNL1        0.0000
      6 C           5.8990    4.0002    1.9182 C.ar    1  UNL1        0.0000
      7 C           5.8260    1.7092    2.5796 C.ar    1  UNL1        0.0000
      8 C           5.4685    3.6634    0.6547 C.ar    1  UNL1        0.0000
      9 C           6.0909    3.0391    2.9103 C.ar    1  UNL1        0.0000
     10 C           5.4835    2.7881    5.9420 C.3     1  UNL1        0.0000
     11 C           6.8224    5.3794    4.8529 C.3     1  UNL1        0.0000
     12 H           5.8655    5.8599    4.6730 H       1  UNL1        0.0000
     13 H           7.5446    5.8089    4.1654 H       1  UNL1        0.0000
     14 H           7.1353    5.6420    5.8590 H       1  UNL1        0.0000
     15 H           5.4088    1.7075    5.8706 H       1  UNL1        0.0000
     16 H           9.1464    3.0885    4.1957 H       1  UNL1        0.0000
     17 H           8.3921    1.6289    4.7995 H       1  UNL1        0.0000
     18 H           6.0945    5.0377    2.1455 H       1  UNL1        0.0000
     19 H           4.4856    3.1934    5.8042 H       1  UNL1        0.0000
     20 H           5.1826    0.3129    1.0704 H       1  UNL1        0.0000
     21 H           5.7998    3.0278    6.9528 H       1  UNL1        0.0000
     22 H           5.9668    0.9441    3.3298 H       1  UNL1        0.0000
     23 H           8.8095    2.9204    5.9081 H       1  UNL1        0.0000
     24 H           5.3213    4.4100   -0.1154 H       1  UNL1        0.0000
@<TRIPOS>BOND
     1     3     4    1
     2    24     8    1
     3     4     8   ar
     4     4     5   ar
     5     8     6   ar
     6    20     5    1
     7     5     7   ar
     8     6    18    1
     9     6     9   ar
    10     7     9   ar
    11     7    22    1
    12     9     1    1
    13    13    11    1
    14    16     2    1
    15     1    11    1
    16     1     2    1
    17     1    10    1
    18    12    11    1
    19    17     2    1
    20    11    14    1
    21     2    23    1
    22    19    10    1
    23    15    10    1
    24    10    21    1
