@<TRIPOS>MOLECULE
1
 6 5 0 0 0
SMALL
GASTEIGER

@<TRIPOS>ATOM
      1 N           3.5284    0.6510   -4.8261 N.3     1  UNL1       -0.1324
      2 C           3.1608    1.3754   -5.6336 C.3     1  UNL1        0.0975
      3 C           2.7011    2.2756   -6.6426 C.3     1  UNL1       -0.0400
      4 H           2.6622    3.2784   -6.2132 H       1  UNL1        0.0250
      5 H           1.7051    1.9838   -6.9749 H       1  UNL1        0.0250
      6 H           3.3914    2.2686   -7.4861 H       1  UNL1        0.0250
@<TRIPOS>BOND
     1     6     3    1
     2     5     3    1
     3     3     4    1
     4     3     2    1
     5     2     1    1
