@<TRIPOS>MOLECULE
2
 24 24 0 0 0
SMALL
GASTEIGER

@<TRIPOS>ATOM
      1 SI         10.9361    0.2165    1.7872 Si      1  UNL1        0.0000
      2 N           6.4804    4.3025    2.0936 N.pl3   1  UNL1        0.0000
      3 C           7.4547    3.3908    2.0153 C.ar    1  UNL1        0.0000
      4 C           8.7598    3.7912    1.6758 C.ar    1  UNL1        0.0000
      5 H           8.9282    4.8433    1.4780 H       1  UNL1        0.0000
      6 C           9.7735    2.8623    1.6091 C.ar    1  UNL1        0.0000
      7 H          10.7690    3.1905    1.3502 H       1  UNL1        0.0000
      8 C           9.5489    1.5104    1.8681 C.ar    1  UNL1        0.0000
      9 C           8.2500    1.1228    2.1981 C.ar    1  UNL1        0.0000
     10 H           8.0493    0.0808    2.4020 H       1  UNL1        0.0000
     11 C           7.2176    2.0301    2.2743 C.ar    1  UNL1        0.0000
     12 H           6.2119    1.7266    2.5351 H       1  UNL1        0.0000
     13 C          12.6181    1.0523    1.4630 C.3     1  UNL1        0.0000
     14 H          13.4193    0.3195    1.4580 H       1  UNL1        0.0000
     15 H          12.8520    1.7851    2.2291 H       1  UNL1        0.0000
     16 H          12.6349    1.5584    0.5027 H       1  UNL1        0.0000
     17 C          10.9997   -0.7142    3.4535 C.3     1  UNL1        0.0000
     18 H          11.7866   -1.4624    3.4589 H       1  UNL1        0.0000
     19 H          10.0631   -1.2233    3.6586 H       1  UNL1        0.0000
     20 H          11.1874   -0.0330    4.2782 H       1  UNL1        0.0000
     21 C          10.5450   -1.0110    0.3768 C.3     1  UNL1        0.0000
     22 H          11.2924   -1.7963    0.3167 H       1  UNL1        0.0000
     23 H          10.5162   -0.5094   -0.5859 H       1  UNL1        0.0000
     24 H           9.5804   -1.4865    0.5248 H       1  UNL1        0.0000
@<TRIPOS>BOND
     1    23    21    1
     2    22    21    1
     3    21    24    1
     4    21     1    1
     5    16    13    1
     6     7     6    1
     7    14    13    1
     8    13     1    1
     9    13    15    1
    10     5     4    1
    11     6     4   ar
    12     6     8   ar
    13     4     3   ar
    14     1     8    1
    15     1    17    1
    16     8     9   ar
    17     3     2    1
    18     3    11   ar
    19     9    11   ar
    20     9    10    1
    21    11    12    1
    22    17    18    1
    23    17    19    1
    24    17    20    1
