@<TRIPOS>MOLECULE
1
 18 18 0 0 0
SMALL
GASTEIGER

@<TRIPOS>ATOM
      1 N           4.9164    5.8607    4.1915 N.pl3   1  UNL1       -0.1288
      2 C           5.0657    7.0873    4.6975 C.ar    1  UNL1        0.0782
      3 C           5.2938    8.2100    3.8630 C.ar    1  UNL1       -0.0257
      4 C           5.3947    9.4716    4.4269 C.ar    1  UNL1       -0.0570
      5 H           5.5602   10.3187    3.7766 H       1  UNL1        0.0621
      6 C           5.2966    9.6622    5.7929 C.ar    1  UNL1       -0.0611
      7 H           5.3740   10.6536    6.2129 H       1  UNL1        0.0618
      8 C           5.1143    8.5657    6.6199 C.ar    1  UNL1       -0.0570
      9 H           5.0587    8.7044    7.6902 H       1  UNL1        0.0621
     10 C           5.0024    7.2896    6.1014 C.ar    1  UNL1       -0.0257
     11 C           4.8599    6.1107    7.0126 C.3     1  UNL1       -0.0378
     12 H           4.2803    5.3270    6.5256 H       1  UNL1        0.0278
     13 H           4.3896    6.4015    7.9501 H       1  UNL1        0.0278
     14 H           5.8503    5.7062    7.2324 H       1  UNL1        0.0278
     15 C           5.4571    8.0543    2.3831 C.3     1  UNL1       -0.0378
     16 H           6.4733    8.3265    2.0973 H       1  UNL1        0.0278
     17 H           4.7747    8.7178    1.8538 H       1  UNL1        0.0278
     18 H           5.2797    7.0236    2.0847 H       1  UNL1        0.0278
@<TRIPOS>BOND
     1    17    15    1
     2    18    15    1
     3    16    15    1
     4    15     3    1
     5     5     4    1
     6     3     4   ar
     7     3     2   ar
     8     1     2    1
     9     4     6   ar
    10     2    10   ar
    11     6     7    1
    12     6     8   ar
    13    10     8   ar
    14    10    11    1
    15    12    11    1
    16     8     9    1
    17    11    14    1
    18    11    13    1
