@<TRIPOS>MOLECULE
1
 12 12 0 0 0
SMALL
GASTEIGER

@<TRIPOS>ATOM
      1 N           4.3668    7.6154    1.3091 N.pl3   1  UNL1       -0.1294
      2 C           4.7683    6.3289    1.4189 C.ar    1  UNL1        0.0724
      3 C           4.2054    5.4737    2.3893 C.ar    1  UNL1       -0.0372
      4 C           4.6134    4.1629    2.5067 C.ar    1  UNL1       -0.0599
      5 C           5.5902    3.6487    1.6679 C.ar    1  UNL1       -0.0616
      6 C           6.1563    4.4710    0.7056 C.ar    1  UNL1       -0.0599
      7 C           5.7610    5.7848    0.5785 C.ar    1  UNL1       -0.0372
      8 H           3.4423    5.8746    3.0436 H       1  UNL1        0.0637
      9 H           4.1655    3.5309    3.2614 H       1  UNL1        0.0618
     10 H           5.9061    2.6207    1.7634 H       1  UNL1        0.0618
     11 H           6.9187    4.0791    0.0466 H       1  UNL1        0.0618
     12 H           6.2001    6.4237   -0.1732 H       1  UNL1        0.0637
@<TRIPOS>BOND
     1    12     7    1
     2    11     6    1
     3     7     6   ar
     4     7     2   ar
     5     6     5   ar
     6     1     2    1
     7     2     3   ar
     8     5    10    1
     9     5     4   ar
    10     3     4   ar
    11     3     8    1
    12     4     9    1
