@<TRIPOS>MOLECULE
2
 14 13 0 0 0
SMALL
GASTEIGER

@<TRIPOS>ATOM
      1 SI          2.2053   17.1830    0.6256 Si      1  UNL1        0.0000
      2 N           1.8734   17.4939    2.2794 N.3     1  UNL1        0.0000
      3 C           1.3650   15.5719    0.0012 C.3     1  UNL1        0.0000
      4 C           1.6441   18.5685   -0.5774 C.3     1  UNL1        0.0000
      5 C           4.1042   16.9624    0.4446 C.3     1  UNL1        0.0000
      6 H           0.2849   15.6644   -0.0046 H       1  UNL1        0.0000
      7 H           1.6200   14.7162    0.6178 H       1  UNL1        0.0000
      8 H           1.6803   15.3497   -1.0136 H       1  UNL1        0.0000
      9 H           2.2511   19.4609   -0.4703 H       1  UNL1        0.0000
     10 H           0.6098   18.8510   -0.4101 H       1  UNL1        0.0000
     11 H           1.7302   18.2359   -1.6071 H       1  UNL1        0.0000
     12 H           4.6012   17.9209    0.3404 H       1  UNL1        0.0000
     13 H           4.3568   16.3641   -0.4244 H       1  UNL1        0.0000
     14 H           4.5102   16.4686    1.3222 H       1  UNL1        0.0000
@<TRIPOS>BOND
     1    11     4    1
     2     8     3    1
     3     4     9    1
     4     4    10    1
     5     4     1    1
     6    13     5    1
     7     6     3    1
     8     3     7    1
     9     3     1    1
    10    12     5    1
    11     5     1    1
    12     5    14    1
    13     1     2    1
