@<TRIPOS>MOLECULE
1
 14 13 0 0 0
SMALL
GASTEIGER

@<TRIPOS>ATOM
      1 N           5.3063    2.1222   12.8888 N.3     1  UNL1       -0.1371
      2 C           5.4841    1.5975   11.5877 C.3     1  UNL1        0.0466
      3 C           6.9265    1.8495   11.1078 C.3     1  UNL1       -0.0443
      4 C           4.5029    2.2405   10.5882 C.3     1  UNL1       -0.0443
      5 C           5.2318    0.0754   11.6473 C.3     1  UNL1       -0.0443
      6 H           7.0823    1.4035   10.1283 H       1  UNL1        0.0248
      7 H           7.6259    1.4094   11.8160 H       1  UNL1        0.0248
      8 H           7.1090    2.9184   11.0521 H       1  UNL1        0.0248
      9 H           4.5919    1.7625    9.6154 H       1  UNL1        0.0248
     10 H           4.7267    3.2981   10.4823 H       1  UNL1        0.0248
     11 H           3.4855    2.1323   10.9519 H       1  UNL1        0.0248
     12 H           5.2498   -0.3580   10.6504 H       1  UNL1        0.0248
     13 H           6.0005   -0.3951   12.2567 H       1  UNL1        0.0248
     14 H           4.2650   -0.1156   12.1081 H       1  UNL1        0.0248
@<TRIPOS>BOND
     1     9     4    1
     2     6     3    1
     3    10     4    1
     4     4    11    1
     5     4     2    1
     6    12     5    1
     7     8     3    1
     8     3     2    1
     9     3     7    1
    10     2     5    1
    11     2     1    1
    12     5    14    1
    13     5    13    1
