@<TRIPOS>MOLECULE
1
 14 13 0 0 0
SMALL
GASTEIGER

@<TRIPOS>ATOM
      1 N          17.8719    2.1341   20.7204 N.3     1  UNL1       -0.1371
      2 C          17.7368    1.7039   22.0586 C.3     1  UNL1        0.0466
      3 C          16.3400    2.0461   22.6134 C.3     1  UNL1       -0.0443
      4 H          16.1886    3.1202   22.5825 H       1  UNL1        0.0248
      5 H          16.2480    1.6978   23.6395 H       1  UNL1        0.0248
      6 H          15.5765    1.5665   22.0065 H       1  UNL1        0.0248
      7 C          18.7990    2.3593   22.9648 C.3     1  UNL1       -0.0443
      8 H          19.7880    2.1952   22.5486 H       1  UNL1        0.0248
      9 H          18.7538    1.9335   23.9646 H       1  UNL1        0.0248
     10 H          18.6207    3.4285   23.0290 H       1  UNL1        0.0248
     11 C          17.9225    0.1708   22.0864 C.3     1  UNL1       -0.0443
     12 H          18.8893   -0.0866   21.6630 H       1  UNL1        0.0248
     13 H          17.1516   -0.2954   21.4777 H       1  UNL1        0.0248
     14 H          17.8595   -0.2076   23.1036 H       1  UNL1        0.0248
@<TRIPOS>BOND
     1     1     2    1
     2    13    11    1
     3    12    11    1
     4     6     3    1
     5     2    11    1
     6     2     3    1
     7     2     7    1
     8    11    14    1
     9     8     7    1
    10     4     3    1
    11     3     5    1
    12     7    10    1
    13     7     9    1
