@<TRIPOS>MOLECULE
1
 30 30 0 0 0
SMALL
GASTEIGER

@<TRIPOS>ATOM
      1 N           6.1983    0.4869   12.0564 N.pl3   1  UNL1       -0.1288
      2 C           7.2730   -0.2450   12.3854 C.ar    1  UNL1        0.0792
      3 C           7.9512   -0.0284   13.6151 C.ar    1  UNL1       -0.0200
      4 C           9.0886   -0.7585   13.9037 C.ar    1  UNL1       -0.0564
      5 C           9.5702   -1.7221   13.0342 C.ar    1  UNL1       -0.0611
      6 C           8.9046   -1.9560   11.8450 C.ar    1  UNL1       -0.0564
      7 C           7.7729   -1.2386   11.5042 C.ar    1  UNL1       -0.0200
      8 C           7.4424    1.0264   14.5689 C.3     1  UNL1       -0.0196
      9 C           7.4299    0.5350   16.0176 C.3     1  UNL1       -0.0586
     10 C           8.2915    2.2945   14.4383 C.3     1  UNL1       -0.0586
     11 C           7.0756   -1.4901   10.1881 C.3     1  UNL1       -0.0196
     12 C           7.9853   -1.1265    9.0131 C.3     1  UNL1       -0.0586
     13 C           6.6066   -2.9439   10.0785 C.3     1  UNL1       -0.0586
     14 H           9.6188   -0.5774   14.8270 H       1  UNL1        0.0621
     15 H          10.4588   -2.2842   13.2820 H       1  UNL1        0.0618
     16 H           9.2821   -2.7080   11.1671 H       1  UNL1        0.0621
     17 H           6.4157    1.2701   14.2733 H       1  UNL1        0.0344
     18 H           6.9414    1.2669   16.6566 H       1  UNL1        0.0235
     19 H           8.4392    0.3859   16.3936 H       1  UNL1        0.0235
     20 H           6.8887   -0.4043   16.0931 H       1  UNL1        0.0235
     21 H           7.9591    3.0494   15.1491 H       1  UNL1        0.0235
     22 H           9.3395    2.0743   14.6332 H       1  UNL1        0.0235
     23 H           8.1972    2.6959   13.4324 H       1  UNL1        0.0235
     24 H           6.2024   -0.8307   10.1456 H       1  UNL1        0.0344
     25 H           7.4548   -1.2629    8.0732 H       1  UNL1        0.0235
     26 H           8.8787   -1.7470    9.0031 H       1  UNL1        0.0235
     27 H           8.2858   -0.0851    9.0893 H       1  UNL1        0.0235
     28 H           5.9882   -3.0749    9.1923 H       1  UNL1        0.0235
     29 H           7.4562   -3.6185   10.0030 H       1  UNL1        0.0235
     30 H           6.0281   -3.2275   10.9560 H       1  UNL1        0.0235
@<TRIPOS>BOND
     1    25    12    1
     2    26    12    1
     3    12    27    1
     4    12    11    1
     5    28    13    1
     6    29    13    1
     7    13    11    1
     8    13    30    1
     9    24    11    1
    10    11     7    1
    11    16     6    1
    12     7     6   ar
    13     7     2   ar
    14     6     5   ar
    15     1     2    1
    16     2     3   ar
    17     5    15    1
    18     5     4   ar
    19    23    10    1
    20     3     4   ar
    21     3     8    1
    22     4    14    1
    23    17     8    1
    24    10     8    1
    25    10    22    1
    26    10    21    1
    27     8     9    1
    28     9    20    1
    29     9    19    1
    30     9    18    1
