@<TRIPOS>MOLECULE
1
 4 3 0 0 0
SMALL
GASTEIGER

@<TRIPOS>ATOM
      1 N           9.3590    2.2159    6.0519 N.3     1  UNL1       -0.0449
      2 N          10.0939    1.4733    5.2958 N.3     1  UNL1       -0.2349
      3 H           9.9091    0.4800    5.1818 H       1  UNL1        0.1399
      4 H          10.8598    1.8741    4.7627 H       1  UNL1        0.1399
@<TRIPOS>BOND
     1     4     2    1
     2     3     2    1
     3     2     1    1
