@<TRIPOS>MOLECULE
1
 12 12 0 0 0
SMALL
GASTEIGER

@<TRIPOS>ATOM
      1 N           2.6402    0.4735    3.5019 N.pl3   1  UNL1       -0.1294
      2 C           3.4007   -0.5637    3.1348 C.ar    1  UNL1        0.0724
      3 C           3.3273   -1.8368    3.7272 C.ar    1  UNL1       -0.0372
      4 C           4.1466   -2.8570    3.2929 C.ar    1  UNL1       -0.0599
      5 C           5.0546   -2.6474    2.2670 C.ar    1  UNL1       -0.0616
      6 C           5.1402   -1.3964    1.6708 C.ar    1  UNL1       -0.0599
      7 C           4.3311   -0.3660    2.0912 C.ar    1  UNL1       -0.0372
      8 H           2.6174   -1.9976    4.5273 H       1  UNL1        0.0637
      9 H           4.0776   -3.8299    3.7594 H       1  UNL1        0.0618
     10 H           5.6921   -3.4522    1.9330 H       1  UNL1        0.0618
     11 H           5.8467   -1.2285    0.8703 H       1  UNL1        0.0618
     12 H           4.3841    0.6196    1.6371 H       1  UNL1        0.0637
@<TRIPOS>BOND
     1    11     6    1
     2    12     7    1
     3     6     7   ar
     4     6     5   ar
     5    10     5    1
     6     7     2   ar
     7     5     4   ar
     8     2     1    1
     9     2     3   ar
    10     4     3   ar
    11     4     9    1
    12     3     8    1
