@<TRIPOS>MOLECULE
1
 12 12 0 0 0
SMALL
GASTEIGER

@<TRIPOS>ATOM
      1 N           6.2548    3.1959    2.5017 N.pl3   1  UNL1       -0.1294
      2 C           5.0711    2.5842    2.7228 C.ar    1  UNL1        0.0724
      3 C           4.0225    2.6220    1.7856 C.ar    1  UNL1       -0.0372
      4 C           2.8255    1.9878    2.0436 C.ar    1  UNL1       -0.0599
      5 C           2.6319    1.2996    3.2311 C.ar    1  UNL1       -0.0616
      6 C           3.6559    1.2509    4.1664 C.ar    1  UNL1       -0.0599
      7 C           4.8569    1.8800    3.9236 C.ar    1  UNL1       -0.0372
      8 H           4.1781    3.1589    0.8590 H       1  UNL1        0.0637
      9 H           2.0316    2.0286    1.3108 H       1  UNL1        0.0618
     10 H           1.6923    0.8050    3.4265 H       1  UNL1        0.0618
     11 H           3.5103    0.7149    5.0939 H       1  UNL1        0.0618
     12 H           5.6695    1.8543    4.6388 H       1  UNL1        0.0637
@<TRIPOS>BOND
     1     8     3    1
     2     9     4    1
     3     3     4   ar
     4     3     2   ar
     5     4     5   ar
     6     1     2    1
     7     2     7   ar
     8     5    10    1
     9     5     6   ar
    10     7     6   ar
    11     7    12    1
    12     6    11    1
