@<TRIPOS>MOLECULE
1
 12 12 0 0 0
SMALL
GASTEIGER

@<TRIPOS>ATOM
      1 N           5.6108    0.0004    4.3283 N.pl3   1  UNL1       -0.1294
      2 C           6.6092    0.0000    5.2214 C.ar    1  UNL1        0.0724
      3 C           6.3594    0.0004    6.6091 C.ar    1  UNL1       -0.0372
      4 C           7.3998    0.0002    7.5114 C.ar    1  UNL1       -0.0599
      5 C           8.7163   -0.0005    7.0735 C.ar    1  UNL1       -0.0616
      6 C           8.9825   -0.0008    5.7118 C.ar    1  UNL1       -0.0599
      7 C           7.9542   -0.0005    4.7958 C.ar    1  UNL1       -0.0372
      8 H           5.3282    0.0010    6.9376 H       1  UNL1        0.0637
      9 H           7.1882    0.0005    8.5721 H       1  UNL1        0.0618
     10 H           9.5272   -0.0007    7.7867 H       1  UNL1        0.0618
     11 H          10.0073   -0.0012    5.3658 H       1  UNL1        0.0618
     12 H           8.1438   -0.0007    3.7296 H       1  UNL1        0.0637
@<TRIPOS>BOND
     1    12     7    1
     2     1     2    1
     3     7     2   ar
     4     7     6   ar
     5     2     3   ar
     6    11     6    1
     7     6     5   ar
     8     3     8    1
     9     3     4   ar
    10     5     4   ar
    11     5    10    1
    12     4     9    1
