@<TRIPOS>MOLECULE
1
 12 12 0 0 0
SMALL
GASTEIGER

@<TRIPOS>ATOM
      1 N           5.8764    3.7225    5.3515 N.pl3   1  UNL1       -0.1294
      2 C           6.8604    3.4687    6.2293 C.ar    1  UNL1        0.0724
      3 C           7.9412    2.6153    5.9177 C.ar    1  UNL1       -0.0372
      4 C           8.9264    2.3487    6.8428 C.ar    1  UNL1       -0.0599
      5 C           8.8863    2.9154    8.1078 C.ar    1  UNL1       -0.0616
      6 C           7.8369    3.7603    8.4366 C.ar    1  UNL1       -0.0599
      7 C           6.8441    4.0372    7.5235 C.ar    1  UNL1       -0.0372
      8 H           7.9781    2.1724    4.9339 H       1  UNL1        0.0637
      9 H           9.7408    1.6896    6.5756 H       1  UNL1        0.0618
     10 H           9.6625    2.7031    8.8273 H       1  UNL1        0.0618
     11 H           7.7954    4.2082    9.4200 H       1  UNL1        0.0618
     12 H           6.0270    4.6964    7.7875 H       1  UNL1        0.0637
@<TRIPOS>BOND
     1     8     3    1
     2     1     2    1
     3     3     2   ar
     4     3     4   ar
     5     2     7   ar
     6     9     4    1
     7     4     5   ar
     8     7    12    1
     9     7     6   ar
    10     5     6   ar
    11     5    10    1
    12     6    11    1
