@<TRIPOS>MOLECULE
1
 14 13 0 0 0
SMALL
GASTEIGER

@<TRIPOS>ATOM
      1 N          11.2628    1.8599    3.1904 N.3     1  UNL1       -0.1371
      2 C          12.1585    1.4005    2.1926 C.3     1  UNL1        0.0466
      3 C          12.0081    2.2283    0.8953 C.3     1  UNL1       -0.0443
      4 H          12.6789    1.8533    0.1244 H       1  UNL1        0.0248
      5 H          12.2348    3.2713    1.0956 H       1  UNL1        0.0248
      6 H          10.9830    2.1606    0.5353 H       1  UNL1        0.0248
      7 C          13.6126    1.5359    2.7034 C.3     1  UNL1       -0.0443
      8 H          14.3272    1.3105    1.9138 H       1  UNL1        0.0248
      9 H          13.7742    0.8543    3.5365 H       1  UNL1        0.0248
     10 H          13.7700    2.5552    3.0539 H       1  UNL1        0.0248
     11 C          11.9023   -0.0843    1.8395 C.3     1  UNL1       -0.0443
     12 H          12.6724   -0.4469    1.1613 H       1  UNL1        0.0248
     13 H          10.9337   -0.1925    1.3570 H       1  UNL1        0.0248
     14 H          11.9087   -0.6837    2.7450 H       1  UNL1        0.0248
@<TRIPOS>BOND
     1     4     3    1
     2     6     3    1
     3     3     5    1
     4     3     2    1
     5    12    11    1
     6    13    11    1
     7    11     2    1
     8    11    14    1
     9     8     7    1
    10     2     7    1
    11     2     1    1
    12     7    10    1
    13     7     9    1
