@<TRIPOS>MOLECULE
1
 41 43 0 0 0
SMALL
GASTEIGER

@<TRIPOS>ATOM
      1 N           8.4674   18.5300   14.4783 N.2     1  UNL1       -0.1511
      2 N           8.6913   21.1830   13.4098 N.pl3   1  UNL1       -0.2860
      3 C           7.8151   19.5654   14.9920 C.2     1  UNL1        0.0966
      4 C           7.8742   20.8502   14.5355 C.3     1  UNL1        0.1078
      5 C           6.9400   19.2590   16.1716 C.ar    1  UNL1        0.0002
      6 C           5.5527   19.3450   16.0751 C.ar    1  UNL1       -0.0528
      7 C           4.7512   19.0088   17.1535 C.ar    1  UNL1       -0.0611
      8 C           5.3257   18.5940   18.3437 C.ar    1  UNL1       -0.0617
      9 C           6.7057   18.5138   18.4491 C.ar    1  UNL1       -0.0611
     10 C           7.5100   18.8352   17.3688 C.ar    1  UNL1       -0.0528
     11 C           7.1137   22.0160   15.1035 C.3     1  UNL1       -0.0351
     12 C          10.0514   21.3221   13.5558 C.ar    1  UNL1        0.0349
     13 C          10.6178   21.3805   14.8370 C.ar    1  UNL1       -0.0403
     14 C          11.9830   21.4883   15.0036 C.ar    1  UNL1       -0.0600
     15 C          12.8286   21.5424   13.9069 C.ar    1  UNL1       -0.0616
     16 C          12.2811   21.4781   12.6348 C.ar    1  UNL1       -0.0600
     17 C          10.9179   21.3654   12.4543 C.ar    1  UNL1       -0.0403
     18 C           8.0046   21.4193   12.2181 C.ar    1  UNL1        0.0349
     19 C           6.9500   20.5745   11.8641 C.ar    1  UNL1       -0.0403
     20 C           6.2224   20.8117   10.7159 C.ar    1  UNL1       -0.0600
     21 C           6.5252   21.8927    9.9022 C.ar    1  UNL1       -0.0616
     22 C           7.5617   22.7411   10.2544 C.ar    1  UNL1       -0.0600
     23 C           8.2941   22.5149   11.4041 C.ar    1  UNL1       -0.0403
     24 H           5.1047   19.6923   15.1541 H       1  UNL1        0.0624
     25 H           3.6758   19.0791   17.0689 H       1  UNL1        0.0618
     26 H           4.7004   18.3420   19.1880 H       1  UNL1        0.0618
     27 H           7.1539   18.2026   19.3822 H       1  UNL1        0.0618
     28 H           8.5853   18.7705   17.4449 H       1  UNL1        0.0624
     29 H           6.6883   21.7727   16.0730 H       1  UNL1        0.0255
     30 H           7.7786   22.8740   15.2174 H       1  UNL1        0.0255
     31 H           6.3042   22.3192   14.4340 H       1  UNL1        0.0255
     32 H           9.9693   21.3417   15.6989 H       1  UNL1        0.0636
     33 H          12.3926   21.5373   16.0022 H       1  UNL1        0.0618
     34 H          13.8960   21.6372   14.0415 H       1  UNL1        0.0618
     35 H          12.9260   21.5158   11.7672 H       1  UNL1        0.0618
     36 H          10.5174   21.2924   11.4558 H       1  UNL1        0.0636
     37 H           6.7371   19.7203   12.4923 H       1  UNL1        0.0636
     38 H           5.4149   20.1461   10.4455 H       1  UNL1        0.0618
     39 H           5.9555   22.0748    9.0030 H       1  UNL1        0.0618
     40 H           7.7950   23.5944    9.6332 H       1  UNL1        0.0618
     41 H           9.0840   23.1956   11.6862 H       1  UNL1        0.0636
@<TRIPOS>BOND
     1    39    21    1
     2    40    22    1
     3    21    22   ar
     4    21    20   ar
     5    22    23   ar
     6    38    20    1
     7    20    19   ar
     8    23    41    1
     9    23    18   ar
    10    36    17    1
    11    35    16    1
    12    19    18   ar
    13    19    37    1
    14    18     2    1
    15    17    16   ar
    16    17    12   ar
    17    16    15   ar
    18     2    12    1
    19     2     4    1
    20    12    13   ar
    21    15    34    1
    22    15    14   ar
    23    31    11    1
    24     1     3    2
    25     4     3    1
    26     4    11    1
    27    13    14   ar
    28    13    32    1
    29     3     5    1
    30    14    33    1
    31    11    30    1
    32    11    29    1
    33    24     6    1
    34     6     5   ar
    35     6     7   ar
    36     5    10   ar
    37    25     7    1
    38     7     8   ar
    39    10    28    1
    40    10     9   ar
    41     8     9   ar
    42     8    26    1
    43     9    27    1
