@<TRIPOS>MOLECULE
1
 41 43 0 0 0
SMALL
GASTEIGER

@<TRIPOS>ATOM
      1 N          22.9705    8.1892   10.8639 N.pl3   1  UNL1       -0.1272
      2 N          23.0199    9.6205    8.3722 N.pl3   1  UNL1       -0.2712
      3 C          23.2439    9.4856   10.7840 C.2     1  UNL1        0.0967
      4 C          23.2595   10.2341    9.6446 C.2     1  UNL1        0.0378
      5 C          23.6033   10.1242   12.0939 C.ar    1  UNL1        0.0010
      6 C          22.7665   11.0391   12.7247 C.ar    1  UNL1       -0.0527
      7 C          23.1109   11.5732   13.9543 C.ar    1  UNL1       -0.0611
      8 C          24.2976   11.2075   14.5662 C.ar    1  UNL1       -0.0617
      9 C          25.1390   10.3012   13.9422 C.ar    1  UNL1       -0.0611
     10 C          24.7920    9.7571   12.7189 C.ar    1  UNL1       -0.0527
     11 C          23.4801   11.7209    9.5876 C.3     1  UNL1       -0.0240
     12 C          24.0607    8.9980    7.7087 C.ar    1  UNL1        0.0385
     13 C          23.8261    8.1354    6.6310 C.ar    1  UNL1       -0.0400
     14 C          24.8743    7.5118    5.9851 C.ar    1  UNL1       -0.0600
     15 C          26.1811    7.7197    6.3936 C.ar    1  UNL1       -0.0616
     16 C          26.4227    8.5548    7.4719 C.ar    1  UNL1       -0.0600
     17 C          25.3827    9.1831    8.1254 C.ar    1  UNL1       -0.0400
     18 C          21.7944    9.8954    7.7660 C.ar    1  UNL1        0.0385
     19 C          21.6937   10.2723    6.4248 C.ar    1  UNL1       -0.0400
     20 C          20.4614   10.5691    5.8758 C.ar    1  UNL1       -0.0600
     21 C          19.3119   10.5075    6.6471 C.ar    1  UNL1       -0.0616
     22 C          19.4068   10.1479    7.9825 C.ar    1  UNL1       -0.0600
     23 C          20.6323    9.8439    8.5396 C.ar    1  UNL1       -0.0400
     24 H          21.8499   11.3455   12.2428 H       1  UNL1        0.0624
     25 H          22.4550   12.2865   14.4331 H       1  UNL1        0.0618
     26 H          24.5705   11.6334   15.5211 H       1  UNL1        0.0618
     27 H          26.0733   10.0230   14.4099 H       1  UNL1        0.0618
     28 H          25.4509    9.0561   12.2250 H       1  UNL1        0.0624
     29 H          23.9182   12.0859   10.5128 H       1  UNL1        0.0291
     30 H          24.1473   11.9692    8.7607 H       1  UNL1        0.0291
     31 H          22.5390   12.2515    9.4175 H       1  UNL1        0.0291
     32 H          22.8137    7.9521    6.3013 H       1  UNL1        0.0636
     33 H          24.6668    6.8507    5.1552 H       1  UNL1        0.0618
     34 H          26.9982    7.2336    5.8816 H       1  UNL1        0.0618
     35 H          27.4374    8.7263    7.8034 H       1  UNL1        0.0618
     36 H          25.5832    9.8260    8.9685 H       1  UNL1        0.0636
     37 H          22.5877   10.3472    5.8231 H       1  UNL1        0.0636
     38 H          20.3988   10.8645    4.8380 H       1  UNL1        0.0618
     39 H          18.3521   10.7439    6.2123 H       1  UNL1        0.0618
     40 H          18.5164   10.0983    8.5929 H       1  UNL1        0.0618
     41 H          20.7151    9.5457    9.5748 H       1  UNL1        0.0636
@<TRIPOS>BOND
     1    38    20    1
     2    33    14    1
     3    37    19    1
     4    20    19   ar
     5    20    21   ar
     6    34    15    1
     7    14    15   ar
     8    14    13   ar
     9    39    21    1
    10    32    13    1
    11    15    16   ar
    12    19    18   ar
    13    13    12   ar
    14    21    22   ar
    15    16    35    1
    16    16    17   ar
    17    12    17   ar
    18    12     2    1
    19    18     2    1
    20    18    23   ar
    21    22    23   ar
    22    22    40    1
    23    17    36    1
    24     2     4    1
    25    23    41    1
    26    30    11    1
    27    31    11    1
    28    11     4    1
    29    11    29    1
    30     4     3    2
    31     3     1    1
    32     3     5    1
    33     5    10   ar
    34     5     6   ar
    35    28    10    1
    36    24     6    1
    37    10     9   ar
    38     6     7   ar
    39     9    27    1
    40     9     8   ar
    41     7    25    1
    42     7     8   ar
    43     8    26    1
