@<TRIPOS>MOLECULE
1
 27 27 0 0 0
SMALL
GASTEIGER

@<TRIPOS>ATOM
      1 N           0.3988   12.7949   10.6706 N.pl3   1  UNL1        0.0000
      2 C          -0.5339   13.7263   10.6280 C.ar    1  UNL1        0.0000
      3 C          -0.8091   14.3246    9.3721 C.ar    1  UNL1        0.0000
      4 C          -1.7730   15.2881    9.2379 C.ar    1  UNL1        0.0000
      5 C          -2.5156   15.7101   10.3431 C.ar    1  UNL1        0.0000
      6 C          -2.2724   15.1519   11.5755 C.ar    1  UNL1        0.0000
      7 C          -1.2940   14.1678   11.7488 C.ar    1  UNL1        0.0000
      8 C          -1.0583   13.6039   13.0663 C.2     1  UNL1        0.0000
      9 O          -1.8741   14.0590   14.0266 O.3     1  UNL1        0.0000
     10 O          -0.2061   12.7842   13.3530 O.2     1  UNL1        0.0000
     11 SI         -1.7072   13.4719   15.5820 Si      1  UNL1        0.0000
     12 C          -3.0840   14.4428   16.4697 C.3     1  UNL1        0.0000
     13 C          -2.0537   11.6008   15.6512 C.3     1  UNL1        0.0000
     14 C          -0.0038   13.9175   16.3086 C.3     1  UNL1        0.0000
     15 H          -0.2243   13.9805    8.5295 H       1  UNL1        0.0000
     16 H          -1.9625   15.7264    8.2678 H       1  UNL1        0.0000
     17 H          -3.2749   16.4700   10.2281 H       1  UNL1        0.0000
     18 H          -2.8362   15.4672   12.4412 H       1  UNL1        0.0000
     19 H          -3.1159   14.1734   17.5194 H       1  UNL1        0.0000
     20 H          -4.0594   14.2322   16.0437 H       1  UNL1        0.0000
     21 H          -2.9225   15.5139   16.4073 H       1  UNL1        0.0000
     22 H          -1.9513   11.2084   16.6583 H       1  UNL1        0.0000
     23 H          -1.3655   11.0603   15.0086 H       1  UNL1        0.0000
     24 H          -3.0610   11.3768   15.3093 H       1  UNL1        0.0000
     25 H           0.0961   13.5814   17.3361 H       1  UNL1        0.0000
     26 H           0.1583   14.9923   16.2945 H       1  UNL1        0.0000
     27 H           0.7913   13.4614   15.7270 H       1  UNL1        0.0000
@<TRIPOS>BOND
     1    16     4    1
     2    15     3    1
     3     4     3   ar
     4     4     5   ar
     5     3     2   ar
     6    17     5    1
     7     5     6   ar
     8     2     1    1
     9     2     7   ar
    10     6     7   ar
    11     6    18    1
    12     7     8    1
    13     8    10    2
    14     8     9    1
    15     9    11    1
    16    23    13    1
    17    24    13    1
    18    11    13    1
    19    11    14    1
    20    11    12    1
    21    13    22    1
    22    27    14    1
    23    20    12    1
    24    26    14    1
    25    14    25    1
    26    21    12    1
    27    12    19    1
