@<TRIPOS>MOLECULE
1
 14 13 0 0 0
SMALL
GASTEIGER

@<TRIPOS>ATOM
      1 N           1.6063    1.7660   10.0721 N.3     1  UNL1        0.0000
      2 SI          0.8146    2.5591    8.7809 Si      1  UNL1        0.0000
      3 C           0.8494    4.4661    8.9821 C.3     1  UNL1        0.0000
      4 H           0.2957    4.7837    9.8601 H       1  UNL1        0.0000
      5 H           0.4051    4.9513    8.1190 H       1  UNL1        0.0000
      6 H           1.8660    4.8342    9.0797 H       1  UNL1        0.0000
      7 C          -1.0177    2.0102    8.6836 C.3     1  UNL1        0.0000
      8 H          -1.0903    0.9345    8.5560 H       1  UNL1        0.0000
      9 H          -1.5256    2.4789    7.8468 H       1  UNL1        0.0000
     10 H          -1.5588    2.2710    9.5879 H       1  UNL1        0.0000
     11 C           1.6563    2.1293    7.1146 C.3     1  UNL1        0.0000
     12 H           2.6425    2.5770    7.0396 H       1  UNL1        0.0000
     13 H           1.0681    2.4827    6.2739 H       1  UNL1        0.0000
     14 H           1.7740    1.0550    7.0097 H       1  UNL1        0.0000
@<TRIPOS>BOND
     1    13    11    1
     2    14    11    1
     3    12    11    1
     4    11     2    1
     5     9     7    1
     6     5     3    1
     7     8     7    1
     8     7     2    1
     9     7    10    1
    10     2     3    1
    11     2     1    1
    12     3     6    1
    13     3     4    1
