@<TRIPOS>MOLECULE
1
 14 13 0 0 0
SMALL
GASTEIGER

@<TRIPOS>ATOM
      1 N           1.5927    1.7240   10.1024 N.3     1  UNL1        0.0000
      2 SI          0.7894    2.4700    8.7934 Si      1  UNL1        0.0000
      3 C           0.7748    4.3834    8.9392 C.3     1  UNL1        0.0000
      4 H           0.2190    4.7118    9.8117 H       1  UNL1        0.0000
      5 H           0.3120    4.8319    8.0659 H       1  UNL1        0.0000
      6 H           1.7815    4.7813    9.0188 H       1  UNL1        0.0000
      7 C          -1.0350    1.8868    8.6917 C.3     1  UNL1        0.0000
      8 H          -1.0908    0.8141    8.5356 H       1  UNL1        0.0000
      9 H          -1.5576    2.3687    7.8716 H       1  UNL1        0.0000
     10 H          -1.5738    2.1134    9.6064 H       1  UNL1        0.0000
     11 C           1.6435    2.0288    7.1330 C.3     1  UNL1        0.0000
     12 H           2.6106    2.5137    7.0426 H       1  UNL1        0.0000
     13 H           1.0397    2.3362    6.2853 H       1  UNL1        0.0000
     14 H           1.8051    0.9580    7.0543 H       1  UNL1        0.0000
@<TRIPOS>BOND
     1    13    11    1
     2    12    11    1
     3    14    11    1
     4    11     2    1
     5     9     7    1
     6     5     3    1
     7     8     7    1
     8     7     2    1
     9     7    10    1
    10     2     3    1
    11     2     1    1
    12     3     6    1
    13     3     4    1
