@<TRIPOS>MOLECULE
1
 26 28 0 0 0
SMALL
GASTEIGER

@<TRIPOS>ATOM
      1 N           7.0635    9.1746    6.5753 N.3     1  UNL1       -0.1362
      2 C          10.1508   11.0835    5.5990 C.3     1  UNL1       -0.0388
      3 C           9.3813    8.5209    6.7898 C.3     1  UNL1       -0.0288
      4 C          10.7984    9.0729    6.9247 C.3     1  UNL1       -0.0388
      5 C           8.4965   10.5475    7.9555 C.3     1  UNL1       -0.0288
      6 C          10.2523   11.9469    6.8556 C.3     1  UNL1       -0.0472
      7 C           9.9151   11.0977    8.0800 C.3     1  UNL1       -0.0388
      8 C          10.9018    9.9351    8.1820 C.3     1  UNL1       -0.0472
      9 C          11.1354    9.9191    5.6976 C.3     1  UNL1       -0.0472
     10 C           8.7302   10.5425    5.4610 C.3     1  UNL1       -0.0288
     11 C           8.3642    9.6775    6.6842 C.3     1  UNL1        0.0557
     12 H           9.1197    7.9047    7.6556 H       1  UNL1        0.0287
     13 H           9.2983    7.9020    5.8941 H       1  UNL1        0.0287
     14 H           8.2550    9.9363    8.8286 H       1  UNL1        0.0287
     15 H           7.7680   11.3616    7.8962 H       1  UNL1        0.0287
     16 H          12.1566   10.2995    5.7779 H       1  UNL1        0.0271
     17 H          11.0737    9.3061    4.7962 H       1  UNL1        0.0271
     18 H          11.9195   10.3183    8.2873 H       1  UNL1        0.0271
     19 H          10.6768    9.3334    9.0656 H       1  UNL1        0.0271
     20 H          11.2629   12.3512    6.9511 H       1  UNL1        0.0271
     21 H           9.5598   12.7888    6.7846 H       1  UNL1        0.0271
     22 H           8.0108   11.3604    5.3900 H       1  UNL1        0.0287
     23 H           8.6325    9.9337    4.5628 H       1  UNL1        0.0287
     24 H          10.3932   11.6911    4.7194 H       1  UNL1        0.0302
     25 H          11.5056    8.2379    6.9969 H       1  UNL1        0.0302
     26 H           9.9862   11.7156    8.9835 H       1  UNL1        0.0302
@<TRIPOS>BOND
     1    23    10    1
     2    24     2    1
     3    17     9    1
     4    22    10    1
     5    10     2    1
     6    10    11    1
     7     2     9    1
     8     2     6    1
     9     9    16    1
    10     9     4    1
    11    13     3    1
    12     1    11    1
    13    11     3    1
    14    11     5    1
    15    21     6    1
    16     3     4    1
    17     3    12    1
    18     6    20    1
    19     6     7    1
    20     4    25    1
    21     4     8    1
    22    15     5    1
    23     5     7    1
    24     5    14    1
    25     7     8    1
    26     7    26    1
    27     8    18    1
    28     8    19    1
