@<TRIPOS>MOLECULE
1
 26 28 0 0 0
SMALL
GASTEIGER

@<TRIPOS>ATOM
      1 N           4.7328   11.9128   13.6925 N.3     1  UNL1       -0.1362
      2 C           4.0980   13.1616   13.6355 C.3     1  UNL1        0.0557
      3 C           2.8782   13.2141   14.5815 C.3     1  UNL1       -0.0288
      4 C           3.6268   13.4916   12.2041 C.3     1  UNL1       -0.0288
      5 C           5.0888   14.2558   14.0917 C.3     1  UNL1       -0.0288
      6 C           2.2205   14.5917   14.5266 C.3     1  UNL1       -0.0388
      7 C           1.7623   14.8896   13.0999 C.3     1  UNL1       -0.0472
      8 C           2.9730   14.8712   12.1680 C.3     1  UNL1       -0.0388
      9 C           3.9784   15.9318   12.6130 C.3     1  UNL1       -0.0472
     10 C           4.4285   15.6312   14.0418 C.3     1  UNL1       -0.0388
     11 C           3.2193   15.6568   14.9745 C.3     1  UNL1       -0.0472
     12 H           2.1672   12.4427   14.2861 H       1  UNL1        0.0287
     13 H           3.2181   12.9971   15.5958 H       1  UNL1        0.0287
     14 H           4.4865   13.4556   11.5357 H       1  UNL1        0.0287
     15 H           2.9173   12.7296   11.8814 H       1  UNL1        0.0287
     16 H           5.4194   14.0206   15.1057 H       1  UNL1        0.0287
     17 H           5.9623   14.2336   13.4392 H       1  UNL1        0.0287
     18 H           1.3529   14.6014   15.1971 H       1  UNL1        0.0302
     19 H           1.0368   14.1391   12.7790 H       1  UNL1        0.0271
     20 H           1.2760   15.8673   13.0616 H       1  UNL1        0.0271
     21 H           2.6471   15.0868   11.1437 H       1  UNL1        0.0302
     22 H           4.8409   15.9281   11.9434 H       1  UNL1        0.0271
     23 H           3.5210   16.9232   12.5671 H       1  UNL1        0.0271
     24 H           5.1529   16.3893   14.3627 H       1  UNL1        0.0302
     25 H           2.7502   16.6434   14.9510 H       1  UNL1        0.0271
     26 H           3.5374   15.4597   16.0005 H       1  UNL1        0.0271
@<TRIPOS>BOND
     1    21     8    1
     2    14     4    1
     3    15     4    1
     4    22     9    1
     5     8     4    1
     6     8     9    1
     7     8     7    1
     8     4     2    1
     9    23     9    1
    10     9    10    1
    11    19     7    1
    12    20     7    1
    13     7     6    1
    14    17     5    1
    15     2     1    1
    16     2     5    1
    17     2     3    1
    18    10     5    1
    19    10    24    1
    20    10    11    1
    21     5    16    1
    22    12     3    1
    23     6     3    1
    24     6    11    1
    25     6    18    1
    26     3    13    1
    27    25    11    1
    28    11    26    1
