@<TRIPOS>MOLECULE
1
 68 70 0 0 0
SMALL
GASTEIGER

@<TRIPOS>ATOM
      1 N           4.5145    9.1929   13.8445 N.3     1  UNL1       -0.0884
      2 N           3.6760    7.4549   15.2007 N.pl3   1  UNL1       -0.2882
      3 N           3.6687    7.1630   12.9788 N.pl3   1  UNL1       -0.2882
      4 C           4.0071    8.0554   13.9860 C.3     1  UNL1        0.2464
      5 C           3.0589    6.1559   15.0140 C.3     1  UNL1        0.0314
      6 C           2.9975    5.9847   13.4905 C.3     1  UNL1        0.0314
      7 C           4.4447    7.6903   16.3736 C.ar    1  UNL1        0.0394
      8 C           3.8693    8.4384   17.4043 C.ar    1  UNL1       -0.0234
      9 C           4.6205    8.6845   18.5447 C.ar    1  UNL1       -0.0566
     10 C           5.9036    8.1845   18.6655 C.ar    1  UNL1       -0.0611
     11 C           6.4537    7.4280   17.6489 C.ar    1  UNL1       -0.0566
     12 C           5.7366    7.1647   16.4882 C.ar    1  UNL1       -0.0234
     13 C           2.4785    8.9988   17.2361 C.3     1  UNL1       -0.0198
     14 C           2.5845   10.4401   16.7326 C.3     1  UNL1       -0.0586
     15 C           1.6487    8.9228   18.5179 C.3     1  UNL1       -0.0586
     16 C           6.3657    6.3446   15.3836 C.3     1  UNL1       -0.0198
     17 C           7.5529    7.0918   14.7749 C.3     1  UNL1       -0.0586
     18 C           6.7901    4.9646   15.8927 C.3     1  UNL1       -0.0586
     19 C           3.4509    7.5344   11.6263 C.ar    1  UNL1        0.0394
     20 C           2.3428    8.3138   11.2823 C.ar    1  UNL1       -0.0234
     21 C           2.1418    8.6172    9.9425 C.ar    1  UNL1       -0.0566
     22 C           2.9952    8.1345    8.9696 C.ar    1  UNL1       -0.0611
     23 C           4.0750    7.3478    9.3223 C.ar    1  UNL1       -0.0566
     24 C           4.3245    7.0431   10.6528 C.ar    1  UNL1       -0.0234
     25 C           1.3737    8.8111   12.3286 C.3     1  UNL1       -0.0198
     26 C           1.5275   10.3221   12.5007 C.3     1  UNL1       -0.0586
     27 C          -0.0688    8.4363   11.9773 C.3     1  UNL1       -0.0586
     28 C           5.4947    6.1669   11.0330 C.3     1  UNL1       -0.0198
     29 C           6.8096    6.7216   10.4863 C.3     1  UNL1       -0.0586
     30 C           5.2662    4.7353   10.5395 C.3     1  UNL1       -0.0586
     31 H           2.0580    6.1482   15.4641 H       1  UNL1        0.0480
     32 H           3.6444    5.3646   15.4953 H       1  UNL1        0.0480
     33 H           3.5135    5.0763   13.1565 H       1  UNL1        0.0480
     34 H           1.9637    5.9353   13.1272 H       1  UNL1        0.0480
     35 H           4.2062    9.2758   19.3459 H       1  UNL1        0.0621
     36 H           6.4800    8.3877   19.5563 H       1  UNL1        0.0618
     37 H           7.4575    7.0450   17.7571 H       1  UNL1        0.0621
     38 H           1.9686    8.4134   16.4658 H       1  UNL1        0.0344
     39 H           1.5929   10.8492   16.5508 H       1  UNL1        0.0235
     40 H           3.1627   10.4712   15.8049 H       1  UNL1        0.0235
     41 H           3.0830   11.0587   17.4764 H       1  UNL1        0.0235
     42 H           1.6754    7.9186   18.9358 H       1  UNL1        0.0235
     43 H           0.6138    9.1792   18.3020 H       1  UNL1        0.0235
     44 H           2.0142    9.6196   19.2673 H       1  UNL1        0.0235
     45 H           5.6359    6.1963   14.5840 H       1  UNL1        0.0344
     46 H           8.3403    7.2392   15.5100 H       1  UNL1        0.0235
     47 H           7.2278    8.0686   14.4144 H       1  UNL1        0.0235
     48 H           7.9638    6.5297   13.9375 H       1  UNL1        0.0235
     49 H           5.9497    4.4483   16.3541 H       1  UNL1        0.0235
     50 H           7.5835    5.0465   16.6311 H       1  UNL1        0.0235
     51 H           7.1565    4.3578   15.0668 H       1  UNL1        0.0235
     52 H           1.3030    9.2307    9.6521 H       1  UNL1        0.0621
     53 H           2.8169    8.3709    7.9308 H       1  UNL1        0.0618
     54 H           4.7303    6.9694    8.5523 H       1  UNL1        0.0621
     55 H           1.6143    8.3525   13.2913 H       1  UNL1        0.0344
     56 H           1.3362   10.8341   11.5600 H       1  UNL1        0.0235
     57 H           2.5448   10.5459   12.8349 H       1  UNL1        0.0235
     58 H           0.8184   10.6838   13.2432 H       1  UNL1        0.0235
     59 H          -0.7297    8.6907   12.8033 H       1  UNL1        0.0235
     60 H          -0.1540    7.3685   11.7832 H       1  UNL1        0.0235
     61 H          -0.4104    8.9709   11.0952 H       1  UNL1        0.0235
     62 H           5.5687    6.1532   12.1244 H       1  UNL1        0.0344
     63 H           6.9343    7.7559   10.7971 H       1  UNL1        0.0235
     64 H           6.8317    6.6838    9.3999 H       1  UNL1        0.0235
     65 H           7.6484    6.1375   10.8613 H       1  UNL1        0.0235
     66 H           5.2243    4.7084    9.4532 H       1  UNL1        0.0235
     67 H           4.3279    4.3392   10.9234 H       1  UNL1        0.0235
     68 H           6.0768    4.0874   10.8673 H       1  UNL1        0.0235
@<TRIPOS>BOND
     1    53    22    1
     2    54    23    1
     3    22    23   ar
     4    22    21   ar
     5    23    24   ar
     6    64    29    1
     7    66    30    1
     8    52    21    1
     9    21    20   ar
    10    29    63    1
    11    29    65    1
    12    29    28    1
    13    30    68    1
    14    30    67    1
    15    30    28    1
    16    24    28    1
    17    24    19   ar
    18    28    62    1
    19    61    27    1
    20    20    19   ar
    21    20    25    1
    22    56    26    1
    23    19     3    1
    24    60    27    1
    25    27    25    1
    26    27    59    1
    27    25    26    1
    28    25    55    1
    29    26    57    1
    30    26    58    1
    31     3     6    1
    32     3     4    1
    33    34     6    1
    34    33     6    1
    35     6     5    1
    36     1     4    1
    37    48    17    1
    38     4     2    1
    39    47    17    1
    40    45    16    1
    41    17    16    1
    42    17    46    1
    43     5     2    1
    44     5    31    1
    45     5    32    1
    46    51    18    1
    47     2     7    1
    48    16    18    1
    49    16    12    1
    50    40    14    1
    51    18    49    1
    52    18    50    1
    53     7    12   ar
    54     7     8   ar
    55    38    13    1
    56    12    11   ar
    57    39    14    1
    58    14    13    1
    59    14    41    1
    60    13     8    1
    61    13    15    1
    62     8     9   ar
    63    11    37    1
    64    11    10   ar
    65    43    15    1
    66    15    42    1
    67    15    44    1
    68     9    10   ar
    69     9    35    1
    70    10    36    1
