@<TRIPOS>MOLECULE
1
 12 12 0 0 0
SMALL
GASTEIGER

@<TRIPOS>ATOM
      1 N           2.5399   -1.0078   -3.5325 N.pl3   1  UNL1       -0.1294
      2 C           2.9667    0.1501   -2.9867 C.ar    1  UNL1        0.0724
      3 C           3.0227    0.3567   -1.5956 C.ar    1  UNL1       -0.0372
      4 C           3.4496    1.5623   -1.0796 C.ar    1  UNL1       -0.0599
      5 C           3.8338    2.5958   -1.9193 C.ar    1  UNL1       -0.0616
      6 C           3.7937    2.4080   -3.2935 C.ar    1  UNL1       -0.0599
      7 C           3.3715    1.2095   -3.8246 C.ar    1  UNL1       -0.0372
      8 H           2.7264   -0.4497   -0.9391 H       1  UNL1        0.0637
      9 H           3.4844    1.7003   -0.0079 H       1  UNL1        0.0618
     10 H           4.1655    3.5372   -1.5078 H       1  UNL1        0.0618
     11 H           4.0981    3.2084   -3.9535 H       1  UNL1        0.0618
     12 H           3.3443    1.0423   -4.8938 H       1  UNL1        0.0637
@<TRIPOS>BOND
     1    12     7    1
     2    11     6    1
     3     7     6   ar
     4     7     2   ar
     5     1     2    1
     6     6     5   ar
     7     2     3   ar
     8     5    10    1
     9     5     4   ar
    10     3     4   ar
    11     3     8    1
    12     4     9    1
