@<TRIPOS>MOLECULE
1
 25 26 0 0 0
SMALL
GASTEIGER

@<TRIPOS>ATOM
      1 N           3.1420    5.4519   -1.6002 N.3     1  UNL1       -0.1307
      2 C           2.6165    4.4060   -1.4339 C.3     1  UNL1        0.1179
      3 C           2.0170    3.2112   -1.2474 C.3     1  UNL1        0.0611
      4 C           0.8762    2.9028   -2.0969 C.ar    1  UNL1       -0.0337
      5 C           0.7549    3.5102   -3.3535 C.ar    1  UNL1       -0.0576
      6 H           1.5454    4.1642   -3.6981 H       1  UNL1        0.0621
      7 C          -0.3432    3.2762   -4.1550 C.ar    1  UNL1       -0.0615
      8 H          -0.4126    3.7550   -5.1220 H       1  UNL1        0.0618
      9 C          -1.3516    2.4248   -3.7309 C.ar    1  UNL1       -0.0617
     10 H          -2.2081    2.2353   -4.3612 H       1  UNL1        0.0618
     11 C          -1.2495    1.8226   -2.4873 C.ar    1  UNL1       -0.0615
     12 H          -2.0360    1.1651   -2.1421 H       1  UNL1        0.0618
     13 C          -0.1572    2.0603   -1.6774 C.ar    1  UNL1       -0.0576
     14 H          -0.1088    1.6105   -0.6978 H       1  UNL1        0.0621
     15 C           2.5439    2.3416   -0.2120 C.ar    1  UNL1       -0.0337
     16 C           2.3483    0.9558   -0.2228 C.ar    1  UNL1       -0.0576
     17 H           1.8214    0.4984   -1.0469 H       1  UNL1        0.0621
     18 C           2.8495    0.1623    0.7888 C.ar    1  UNL1       -0.0615
     19 H           2.6807   -0.9055    0.7605 H       1  UNL1        0.0618
     20 C           3.5764    0.7164    1.8309 C.ar    1  UNL1       -0.0617
     21 H           3.9614    0.0910    2.6231 H       1  UNL1        0.0618
     22 C           3.8211    2.0807    1.8325 C.ar    1  UNL1       -0.0615
     23 H           4.4040    2.5251    2.6283 H       1  UNL1        0.0618
     24 C           3.3149    2.8787    0.8288 C.ar    1  UNL1       -0.0576
     25 H           3.5164    3.9445    0.8355 H       1  UNL1        0.0621
@<TRIPOS>BOND
     1     8     7    1
     2    10     9    1
     3     7     9   ar
     4     7     5   ar
     5     9    11   ar
     6     6     5    1
     7     5     4   ar
     8    11    12    1
     9    11    13   ar
    10     4    13   ar
    11     4     3    1
    12    13    14    1
    13     1     2    1
    14     2     3    1
    15     3    15    1
    16    17    16    1
    17    16    15   ar
    18    16    18   ar
    19    15    24   ar
    20    19    18    1
    21    18    20   ar
    22    24    25    1
    23    24    22   ar
    24    20    22   ar
    25    20    21    1
    26    22    23    1
