@<TRIPOS>MOLECULE
1
 14 13 0 0 0
SMALL
GASTEIGER

@<TRIPOS>ATOM
      1 N           2.4046   -0.9452    8.4320 N.3     1  UNL1       -0.1371
      2 C           3.1802   -2.0694    8.7800 C.3     1  UNL1        0.0466
      3 C           4.4072   -1.6012    9.5980 C.3     1  UNL1       -0.0443
      4 C           2.3559   -3.0748    9.6086 C.3     1  UNL1       -0.0443
      5 C           3.6809   -2.7507    7.4851 C.3     1  UNL1       -0.0443
      6 H           5.0670   -2.4364    9.8222 H       1  UNL1        0.0248
      7 H           4.0787   -1.1525   10.5345 H       1  UNL1        0.0248
      8 H           4.9444   -0.8532    9.0131 H       1  UNL1        0.0248
      9 H           2.9377   -3.9681    9.8237 H       1  UNL1        0.0248
     10 H           2.0448   -2.6166   10.5454 H       1  UNL1        0.0248
     11 H           1.4637   -3.3511    9.0505 H       1  UNL1        0.0248
     12 H           4.4148   -3.5233    7.7070 H       1  UNL1        0.0248
     13 H           4.1245   -1.9835    6.8433 H       1  UNL1        0.0248
     14 H           2.8373   -3.1985    6.9638 H       1  UNL1        0.0248
@<TRIPOS>BOND
     1    13     5    1
     2    14     5    1
     3     5    12    1
     4     5     2    1
     5     1     2    1
     6     2     3    1
     7     2     4    1
     8     8     3    1
     9    11     4    1
    10     3     6    1
    11     3     7    1
    12     4     9    1
    13     4    10    1
