@<TRIPOS>MOLECULE
1
 18 18 0 0 0
SMALL
GASTEIGER

@<TRIPOS>ATOM
      1 N           9.8982    6.3933    4.5878 N.pl3   1  UNL1       -0.1288
      2 C          10.1393    7.4938    3.8737 C.ar    1  UNL1        0.0782
      3 C           9.1051    8.4454    3.6426 C.ar    1  UNL1       -0.0257
      4 C           9.3650    9.5810    2.9047 C.ar    1  UNL1       -0.0570
      5 C          10.6248    9.8229    2.3760 C.ar    1  UNL1       -0.0611
      6 C          11.6386    8.9035    2.5871 C.ar    1  UNL1       -0.0570
      7 C          11.4212    7.7527    3.3203 C.ar    1  UNL1       -0.0257
      8 C           7.7496    8.1593    4.2125 C.3     1  UNL1       -0.0378
      9 C          12.5264    6.7596    3.5466 C.3     1  UNL1       -0.0378
     10 H           8.5693   10.2946    2.7366 H       1  UNL1        0.0621
     11 H          10.8122   10.7181    1.8019 H       1  UNL1        0.0618
     12 H          12.6218    9.0833    2.1720 H       1  UNL1        0.0621
     13 H           7.0233    8.8992    3.8838 H       1  UNL1        0.0278
     14 H           7.7914    8.1612    5.3071 H       1  UNL1        0.0278
     15 H           7.4223    7.1601    3.8991 H       1  UNL1        0.0278
     16 H          13.1586    6.6718    2.6644 H       1  UNL1        0.0278
     17 H          13.1578    7.0678    4.3832 H       1  UNL1        0.0278
     18 H          12.0866    5.7870    3.7830 H       1  UNL1        0.0278
@<TRIPOS>BOND
     1    11     5    1
     2    12     6    1
     3     5     6   ar
     4     5     4   ar
     5     6     7   ar
     6    16     9    1
     7    10     4    1
     8     4     3   ar
     9     7     9    1
    10     7     2   ar
    11     9    18    1
    12     9    17    1
    13     3     2   ar
    14     3     8    1
    15     2     1    1
    16    13     8    1
    17    15     8    1
    18     8    14    1
