@<TRIPOS>MOLECULE
1
 36 38 0 0 0
SMALL
GASTEIGER

@<TRIPOS>ATOM
      1 N           4.0240    2.9824    3.5512 N.3     1  UNL1       -0.1228
      2 P           1.2901    2.2999    3.5342 P.3     1  UNL1       -0.0124
      3 C           3.0509    2.7187    2.8393 C.3     1  UNL1        0.1364
      4 C           3.0613    2.7476    1.3581 C.ar    1  UNL1       -0.0170
      5 C           4.2755    2.6020    0.6893 C.ar    1  UNL1       -0.0563
      6 H           5.1764    2.4661    1.2708 H       1  UNL1        0.0621
      7 C           4.3182    2.6366   -0.6912 C.ar    1  UNL1       -0.0614
      8 H           5.2618    2.5155   -1.2030 H       1  UNL1        0.0618
      9 C           3.1554    2.8301   -1.4199 C.ar    1  UNL1       -0.0617
     10 H           3.1897    2.8552   -2.4993 H       1  UNL1        0.0618
     11 C           1.9491    3.0000   -0.7607 C.ar    1  UNL1       -0.0614
     12 H           1.0429    3.1660   -1.3249 H       1  UNL1        0.0618
     13 C           1.9024    2.9575    0.6201 C.ar    1  UNL1       -0.0563
     14 H           0.9606    3.1075    1.1325 H       1  UNL1        0.0621
     15 C           1.1647    0.6718    2.7001 C.ar    1  UNL1       -0.0168
     16 C           2.2336   -0.2195    2.7013 C.ar    1  UNL1       -0.0538
     17 H           3.1342    0.0383    3.2409 H       1  UNL1        0.0624
     18 C           2.1382   -1.4195    2.0237 C.ar    1  UNL1       -0.0612
     19 H           2.9726   -2.1061    2.0289 H       1  UNL1        0.0618
     20 C           0.9791   -1.7412    1.3348 C.ar    1  UNL1       -0.0617
     21 H           0.9084   -2.6790    0.8031 H       1  UNL1        0.0618
     22 C          -0.0875   -0.8582    1.3280 C.ar    1  UNL1       -0.0612
     23 H          -0.9925   -1.1075    0.7926 H       1  UNL1        0.0618
     24 C           0.0052    0.3436    2.0065 C.ar    1  UNL1       -0.0538
     25 H          -0.8263    1.0352    2.0047 H       1  UNL1        0.0624
     26 C           1.8230    1.8052    5.2041 C.ar    1  UNL1       -0.0168
     27 C           1.5109    0.5749    5.7812 C.ar    1  UNL1       -0.0538
     28 H           1.0696   -0.2049    5.1755 H       1  UNL1        0.0624
     29 C           1.7221    0.3614    7.1297 C.ar    1  UNL1       -0.0612
     30 H           1.4663   -0.5930    7.5669 H       1  UNL1        0.0618
     31 C           2.2201    1.3759    7.9340 C.ar    1  UNL1       -0.0617
     32 H           2.3353    1.2109    8.9962 H       1  UNL1        0.0618
     33 C           2.5449    2.6023    7.3730 C.ar    1  UNL1       -0.0612
     34 H           2.8801    3.4246    7.9973 H       1  UNL1        0.0618
     35 C           2.3652    2.8151    6.0126 C.ar    1  UNL1       -0.0538
     36 H           2.4854    3.8129    5.6067 H       1  UNL1        0.0624
@<TRIPOS>BOND
     1    10     9    1
     2     9    11   ar
     3     9     7   ar
     4    12    11    1
     5     8     7    1
     6    11    13   ar
     7     7     5   ar
     8    13    14    1
     9    13     4   ar
    10     5     6    1
    11     5     4   ar
    12    23    22    1
    13    21    20    1
    14    22    20   ar
    15    22    24   ar
    16    20    18   ar
    17     4     3    1
    18    25    24    1
    19    24    15   ar
    20    18    19    1
    21    18    16   ar
    22    15    16   ar
    23    15     2    1
    24    16    17    1
    25     3     2    1
    26     3     1    1
    27     2    26    1
    28    28    27    1
    29    26    27   ar
    30    26    35   ar
    31    36    35    1
    32    27    29   ar
    33    35    33   ar
    34    29    30    1
    35    29    31   ar
    36    33    31   ar
    37    33    34    1
    38    31    32    1
