@<TRIPOS>MOLECULE
1
 32 33 0 0 0
SMALL
GASTEIGER

@<TRIPOS>ATOM
      1 N           5.7636   10.1963    2.7842 N.3     1  UNL1       -0.1238
      2 P           6.5850    7.8085    1.7087 P.3     1  UNL1       -0.0861
      3 C           5.4065    9.2624    2.0479 C.3     1  UNL1        0.1249
      4 C           4.0943    9.1577    1.3596 C.ar    1  UNL1       -0.0179
      5 C           2.9977    9.8446    1.8787 C.ar    1  UNL1       -0.0563
      6 H           3.1456   10.4703    2.7522 H       1  UNL1        0.0621
      7 C           1.7592    9.7307    1.2764 C.ar    1  UNL1       -0.0614
      8 H           0.9078   10.2527    1.6877 H       1  UNL1        0.0618
      9 C           1.6057    8.9503    0.1406 C.ar    1  UNL1       -0.0617
     10 H           0.6367    8.8636   -0.3291 H       1  UNL1        0.0618
     11 C           2.6972    8.2865   -0.3951 C.ar    1  UNL1       -0.0614
     12 H           2.5814    7.6895   -1.2882 H       1  UNL1        0.0618
     13 C           3.9340    8.3832    0.2162 C.ar    1  UNL1       -0.0563
     14 H           4.7918    7.8709   -0.2025 H       1  UNL1        0.0621
     15 C           5.5925    6.4130    2.4946 C.3     1  UNL1       -0.0211
     16 H           4.8262    6.1130    1.7673 H       1  UNL1        0.0347
     17 C           4.9068    6.8098    3.7992 C.3     1  UNL1       -0.0464
     18 H           4.1887    7.6118    3.6108 H       1  UNL1        0.0271
     19 H           5.6538    7.1880    4.5030 H       1  UNL1        0.0271
     20 C           4.1772    5.6195    4.4174 C.3     1  UNL1       -0.0525
     21 H           3.7193    5.9232    5.3617 H       1  UNL1        0.0265
     22 H           3.3772    5.2990    3.7451 H       1  UNL1        0.0265
     23 C           5.1354    4.4562    4.6512 C.3     1  UNL1       -0.0530
     24 H           5.9057    4.7588    5.3644 H       1  UNL1        0.0265
     25 H           4.5960    3.6083    5.0794 H       1  UNL1        0.0265
     26 C           5.7943    4.0471    3.3379 C.3     1  UNL1       -0.0525
     27 H           5.0279    3.7002    2.6404 H       1  UNL1        0.0265
     28 H           6.4904    3.2225    3.5080 H       1  UNL1        0.0265
     29 C           6.5365    5.2318    2.7270 C.3     1  UNL1       -0.0464
     30 H           6.9973    4.9377    1.7806 H       1  UNL1        0.0271
     31 H           7.3383    5.5425    3.4029 H       1  UNL1        0.0271
     32 H           7.3198    8.0837    2.8732 H       1  UNL1        0.0602
@<TRIPOS>BOND
     1    12    11    1
     2    11     9   ar
     3    11    13   ar
     4    10     9    1
     5    14    13    1
     6     9     7   ar
     7    13     4   ar
     8     7     8    1
     9     7     5   ar
    10     4     5   ar
    11     4     3    1
    12     2     3    1
    13     2    15    1
    14     2    32    1
    15    16    15    1
    16    30    29    1
    17     5     6    1
    18     3     1    1
    19    15    29    1
    20    15    17    1
    21    27    26    1
    22    29    26    1
    23    29    31    1
    24    26    28    1
    25    26    23    1
    26    18    17    1
    27    22    20    1
    28    17    20    1
    29    17    19    1
    30    20    23    1
    31    20    21    1
    32    23    25    1
    33    23    24    1
