@<TRIPOS>MOLECULE
1
 18 18 0 0 0
SMALL
GASTEIGER

@<TRIPOS>ATOM
      1 N           7.7814    5.6502   10.3986 N.pl3   1  UNL1       -0.1288
      2 C           7.7092    6.7878    9.6932 C.ar    1  UNL1        0.0782
      3 C           7.3391    6.7903    8.3241 C.ar    1  UNL1       -0.0257
      4 C           7.2549    7.9868    7.6352 C.ar    1  UNL1       -0.0570
      5 H           6.9638    7.9707    6.5938 H       1  UNL1        0.0621
      6 C           7.5431    9.1945    8.2471 C.ar    1  UNL1       -0.0611
      7 H           7.4740   10.1183    7.6927 H       1  UNL1        0.0618
      8 C           7.9313    9.2048    9.5768 C.ar    1  UNL1       -0.0570
      9 H           8.1703   10.1431   10.0584 H       1  UNL1        0.0621
     10 C           8.0166    8.0328   10.3028 C.ar    1  UNL1       -0.0257
     11 C           7.0614    5.4947    7.6206 C.3     1  UNL1       -0.0378
     12 H           6.9116    4.7034    8.3535 H       1  UNL1        0.0278
     13 H           7.9113    5.2287    6.9912 H       1  UNL1        0.0278
     14 H           6.1875    5.5845    6.9775 H       1  UNL1        0.0278
     15 C           8.4411    8.0472   11.7409 C.3     1  UNL1       -0.0378
     16 H           8.9369    8.9827   11.9908 H       1  UNL1        0.0278
     17 H           9.1193    7.2123   11.9317 H       1  UNL1        0.0278
     18 H           7.5699    7.9356   12.3886 H       1  UNL1        0.0278
@<TRIPOS>BOND
     1     5     4    1
     2    14    11    1
     3    13    11    1
     4    11     3    1
     5    11    12    1
     6     4     6   ar
     7     4     3   ar
     8     7     6    1
     9     6     8   ar
    10     3     2   ar
    11     8     9    1
    12     8    10   ar
    13     2    10   ar
    14     2     1    1
    15    10    15    1
    16    15    17    1
    17    15    16    1
    18    15    18    1
