@<TRIPOS>MOLECULE
1
 25 26 0 0 0
SMALL
GASTEIGER

@<TRIPOS>ATOM
      1 N           1.1510    2.8813    2.4969 N.pl3   1  UNL1       -0.0061
      2 N           2.1110    2.1089    2.4648 N.2     1  UNL1       -0.1408
      3 C           2.2956    0.8714    2.8186 C.2     1  UNL1        0.0995
      4 C           3.6361    0.3276    2.6162 C.ar    1  UNL1        0.0026
      5 C           4.7390    1.1832    2.5457 C.ar    1  UNL1       -0.0525
      6 C           6.0069    0.6792    2.3375 C.ar    1  UNL1       -0.0611
      7 C           6.2001   -0.6857    2.1873 C.ar    1  UNL1       -0.0617
      8 C           5.1124   -1.5422    2.2369 C.ar    1  UNL1       -0.0611
      9 C           3.8407   -1.0440    2.4476 C.ar    1  UNL1       -0.0525
     10 C           1.2350    0.0590    3.4245 C.ar    1  UNL1        0.0026
     11 C          -0.0930    0.2162    3.0277 C.ar    1  UNL1       -0.0525
     12 C          -1.0999   -0.4931    3.6553 C.ar    1  UNL1       -0.0611
     13 C          -0.7988   -1.3619    4.6913 C.ar    1  UNL1       -0.0617
     14 C           0.5171   -1.5188    5.0981 C.ar    1  UNL1       -0.0611
     15 C           1.5289   -0.8166    4.4730 C.ar    1  UNL1       -0.0525
     16 H           4.5826    2.2439    2.6669 H       1  UNL1        0.0624
     17 H           6.8515    1.3509    2.2924 H       1  UNL1        0.0618
     18 H           7.1928   -1.0790    2.0263 H       1  UNL1        0.0618
     19 H           5.2560   -2.6047    2.1058 H       1  UNL1        0.0618
     20 H           2.9952   -1.7155    2.4608 H       1  UNL1        0.0624
     21 H          -0.3297    0.8867    2.2133 H       1  UNL1        0.0624
     22 H          -2.1220   -0.3582    3.3360 H       1  UNL1        0.0618
     23 H          -1.5859   -1.9123    5.1846 H       1  UNL1        0.0618
     24 H           0.7545   -2.1881    5.9123 H       1  UNL1        0.0618
     25 H           2.5495   -0.9222    4.8107 H       1  UNL1        0.0624
@<TRIPOS>BOND
     1    18     7    1
     2    19     8    1
     3     7     8   ar
     4     7     6   ar
     5    21    11    1
     6     8     9   ar
     7    17     6    1
     8     6     5   ar
     9     9    20    1
    10     9     4   ar
    11     2     1    1
    12     2     3    2
    13     5     4   ar
    14     5    16    1
    15     4     3    1
    16     3    10    1
    17    11    10   ar
    18    11    12   ar
    19    22    12    1
    20    10    15   ar
    21    12    13   ar
    22    15    25    1
    23    15    14   ar
    24    13    14   ar
    25    13    23    1
    26    14    24    1
