@<TRIPOS>MOLECULE
1
 14 13 0 0 0
SMALL
GASTEIGER

@<TRIPOS>ATOM
      1 N          -0.2195    2.0390    2.5500 N.3     1  UNL1        0.0000
      2 SI         -1.5304    2.1631    1.4553 Si      1  UNL1        0.0000
      3 C          -0.8990    2.8976   -0.2032 C.3     1  UNL1        0.0000
      4 H          -0.2791    2.1877   -0.7414 H       1  UNL1        0.0000
      5 H          -0.3124    3.7948   -0.0324 H       1  UNL1        0.0000
      6 H          -1.7318    3.1608   -0.8471 H       1  UNL1        0.0000
      7 C          -2.8662    3.3229    2.1808 C.3     1  UNL1        0.0000
      8 H          -3.2275    2.9449    3.1315 H       1  UNL1        0.0000
      9 H          -3.7162    3.4186    1.5128 H       1  UNL1        0.0000
     10 H          -2.4624    4.3148    2.3562 H       1  UNL1        0.0000
     11 C          -2.2612    0.4247    1.1319 C.3     1  UNL1        0.0000
     12 H          -2.6941    0.0153    2.0387 H       1  UNL1        0.0000
     13 H          -1.4912   -0.2637    0.7985 H       1  UNL1        0.0000
     14 H          -3.0374    0.4544    0.3740 H       1  UNL1        0.0000
@<TRIPOS>BOND
     1     6     3    1
     2     4     3    1
     3     3     5    1
     4     3     2    1
     5    14    11    1
     6    13    11    1
     7    11     2    1
     8    11    12    1
     9     2     7    1
    10     2     1    1
    11     9     7    1
    12     7    10    1
    13     7     8    1
