@<TRIPOS>MOLECULE
1
 30 30 0 0 0
SMALL
GASTEIGER

@<TRIPOS>ATOM
      1 N           2.6406    9.6197    3.2649 N.pl3   1  UNL1       -0.1288
      2 C           2.4369    8.3899    2.7795 C.ar    1  UNL1        0.0792
      3 C           2.2719    8.1657    1.3802 C.ar    1  UNL1       -0.0200
      4 C           1.9918    6.9003    0.9061 C.ar    1  UNL1       -0.0564
      5 C           1.9036    5.8123    1.7571 C.ar    1  UNL1       -0.0611
      6 C           2.1186    6.0002    3.1103 C.ar    1  UNL1       -0.0564
      7 C           2.3788    7.2510    3.6365 C.ar    1  UNL1       -0.0200
      8 C           2.6403    7.4006    5.1181 C.3     1  UNL1       -0.0196
      9 C           1.5058    6.8077    5.9589 C.3     1  UNL1       -0.0586
     10 C           3.9621    6.7261    5.4940 C.3     1  UNL1       -0.0586
     11 C           2.4063    9.3298    0.4275 C.3     1  UNL1       -0.0196
     12 C           3.3280    9.0080   -0.7499 C.3     1  UNL1       -0.0586
     13 C           1.0287    9.7647   -0.0809 C.3     1  UNL1       -0.0586
     14 H           1.8424    6.7509   -0.1535 H       1  UNL1        0.0621
     15 H           1.6841    4.8287    1.3687 H       1  UNL1        0.0618
     16 H           2.0800    5.1449    3.7699 H       1  UNL1        0.0621
     17 H           2.7350    8.4810    5.3267 H       1  UNL1        0.0344
     18 H           0.5418    7.2039    5.6510 H       1  UNL1        0.0235
     19 H           1.6568    7.0288    7.0138 H       1  UNL1        0.0235
     20 H           1.4768    5.7266    5.8478 H       1  UNL1        0.0235
     21 H           3.9131    5.6573    5.2976 H       1  UNL1        0.0235
     22 H           4.7791    7.1468    4.9154 H       1  UNL1        0.0235
     23 H           4.1788    6.8759    6.5499 H       1  UNL1        0.0235
     24 H           2.8494   10.1577    1.0001 H       1  UNL1        0.0344
     25 H           3.5140    9.9073   -1.3330 H       1  UNL1        0.0235
     26 H           4.2794    8.6224   -0.3918 H       1  UNL1        0.0235
     27 H           2.8832    8.2660   -1.4086 H       1  UNL1        0.0235
     28 H           0.5654    8.9642   -0.6545 H       1  UNL1        0.0235
     29 H           0.3776   10.0050    0.7576 H       1  UNL1        0.0235
     30 H           1.1163   10.6419   -0.7196 H       1  UNL1        0.0235
@<TRIPOS>BOND
     1    27    12    1
     2    25    12    1
     3    12    26    1
     4    12    11    1
     5    30    13    1
     6    28    13    1
     7    14     4    1
     8    13    11    1
     9    13    29    1
    10    11    24    1
    11    11     3    1
    12     4     3   ar
    13     4     5   ar
    14    15     5    1
    15     3     2   ar
    16     5     6   ar
    17     2     1    1
    18     2     7   ar
    19     6     7   ar
    20     6    16    1
    21     7     8    1
    22    22    10    1
    23     8    17    1
    24     8    10    1
    25     8     9    1
    26    21    10    1
    27    10    23    1
    28    18     9    1
    29    20     9    1
    30     9    19    1
