@<TRIPOS>MOLECULE
1
 41 40 0 0 0
SMALL
GASTEIGER

@<TRIPOS>ATOM
      1 N          -0.2570   -0.3793    2.4609 N.3     1  UNL1        0.0000
      2 SI         -0.6075   -0.7728    0.8459 Si      1  UNL1        0.0000
      3 C          -0.5499   -2.7259    0.7135 C.3     1  UNL1        0.0000
      4 C           0.6962   -3.2389    1.4379 C.3     1  UNL1        0.0000
      5 C          -0.5423   -3.2469   -0.7228 C.3     1  UNL1        0.0000
      6 C          -1.7461   -3.3429    1.4379 C.3     1  UNL1        0.0000
      7 C          -2.4214   -0.0572    0.5765 C.3     1  UNL1        0.0000
      8 C          -2.3660    1.4650    0.4488 C.3     1  UNL1        0.0000
      9 C          -3.2700   -0.3592    1.8135 C.3     1  UNL1        0.0000
     10 C          -3.1317   -0.6084   -0.6578 C.3     1  UNL1        0.0000
     11 C           0.7190    0.1175   -0.2833 C.3     1  UNL1        0.0000
     12 C           0.9966    1.5133    0.2796 C.3     1  UNL1        0.0000
     13 C           0.3251    0.2377   -1.7554 C.3     1  UNL1        0.0000
     14 C           2.0431   -0.6399   -0.2022 C.3     1  UNL1        0.0000
     15 H           0.6510   -4.3239    1.5422 H       1  UNL1        0.0000
     16 H           1.6035   -2.9943    0.9002 H       1  UNL1        0.0000
     17 H           0.7579   -2.7898    2.4267 H       1  UNL1        0.0000
     18 H          -0.5367   -4.3382   -0.7280 H       1  UNL1        0.0000
     19 H          -1.4206   -2.9123   -1.2688 H       1  UNL1        0.0000
     20 H           0.3406   -2.9091   -1.2577 H       1  UNL1        0.0000
     21 H          -1.6399   -4.4282    1.4836 H       1  UNL1        0.0000
     22 H          -1.8004   -2.9622    2.4541 H       1  UNL1        0.0000
     23 H          -2.6791   -3.1279    0.9253 H       1  UNL1        0.0000
     24 H          -3.3736    1.8883    0.4636 H       1  UNL1        0.0000
     25 H          -1.7988    1.8914    1.2723 H       1  UNL1        0.0000
     26 H          -1.9010    1.7643   -0.4850 H       1  UNL1        0.0000
     27 H          -4.2038    0.2077    1.7885 H       1  UNL1        0.0000
     28 H          -3.5213   -1.4115    1.8761 H       1  UNL1        0.0000
     29 H          -2.7124   -0.0919    2.7095 H       1  UNL1        0.0000
     30 H          -4.1101   -0.1379   -0.7764 H       1  UNL1        0.0000
     31 H          -2.5540   -0.4157   -1.5576 H       1  UNL1        0.0000
     32 H          -3.2874   -1.6804   -0.5763 H       1  UNL1        0.0000
     33 H           1.8678    1.9501   -0.2100 H       1  UNL1        0.0000
     34 H           0.1595    2.1856    0.1270 H       1  UNL1        0.0000
     35 H           1.1946    1.4414    1.3499 H       1  UNL1        0.0000
     36 H           1.1338    0.6990   -2.3246 H       1  UNL1        0.0000
     37 H           0.1240   -0.7390   -2.1877 H       1  UNL1        0.0000
     38 H          -0.5608    0.8544   -1.8815 H       1  UNL1        0.0000
     39 H           2.8342   -0.0721   -0.6947 H       1  UNL1        0.0000
     40 H           2.3152   -0.7856    0.8393 H       1  UNL1        0.0000
     41 H           1.9801   -1.6055   -0.6943 H       1  UNL1        0.0000
@<TRIPOS>BOND
     1    36    13    1
     2    37    13    1
     3    38    13    1
     4    13    11    1
     5    31    10    1
     6    19     5    1
     7    20     5    1
     8    30    10    1
     9    18     5    1
    10     5     3    1
    11    39    14    1
    12    41    14    1
    13    10    32    1
    14    10     7    1
    15    26     8    1
    16    11    14    1
    17    11    12    1
    18    11     2    1
    19    33    12    1
    20    14    40    1
    21    34    12    1
    22    12    35    1
    23     8    24    1
    24     8     7    1
    25     8    25    1
    26     7     2    1
    27     7     9    1
    28     3     2    1
    29     3     6    1
    30     3     4    1
    31     2     1    1
    32    16     4    1
    33    23     6    1
    34     6    21    1
    35     6    22    1
    36     4    15    1
    37     4    17    1
    38    27     9    1
    39     9    28    1
    40     9    29    1
