@<TRIPOS>MOLECULE
1
 41 40 0 0 0
SMALL
GASTEIGER

@<TRIPOS>ATOM
      1 N           2.1118    0.6214    4.3986 N.3     1  UNL1        0.0000
      2 SI          3.7860    0.7517    4.6602 Si      1  UNL1        0.0000
      3 C           4.5277    2.0269    3.3664 C.3     1  UNL1        0.0000
      4 C           5.8814    2.6098    3.7705 C.3     1  UNL1        0.0000
      5 C           3.5343    3.1711    3.1572 C.3     1  UNL1        0.0000
      6 C           4.6832    1.3640    1.9986 C.3     1  UNL1        0.0000
      7 C           3.9111    1.4170    6.5133 C.3     1  UNL1        0.0000
      8 C           5.3098    1.3133    7.1177 C.3     1  UNL1        0.0000
      9 C           2.9383    0.6409    7.4053 C.3     1  UNL1        0.0000
     10 C           3.4732    2.8805    6.5757 C.3     1  UNL1        0.0000
     11 C           4.5484   -1.0406    4.4628 C.3     1  UNL1        0.0000
     12 C           4.1325   -1.9233    5.6386 C.3     1  UNL1        0.0000
     13 C           6.0743   -1.0653    4.3719 C.3     1  UNL1        0.0000
     14 C           3.9618   -1.6909    3.2087 C.3     1  UNL1        0.0000
     15 H           6.2644    3.2564    2.9788 H       1  UNL1        0.0000
     16 H           5.8031    3.2080    4.6745 H       1  UNL1        0.0000
     17 H           6.6103    1.8227    3.9432 H       1  UNL1        0.0000
     18 H           3.8819    3.8339    2.3630 H       1  UNL1        0.0000
     19 H           2.5713    2.7576    2.8650 H       1  UNL1        0.0000
     20 H           3.4092    3.7672    4.0549 H       1  UNL1        0.0000
     21 H           4.9573    2.1099    1.2501 H       1  UNL1        0.0000
     22 H           5.4620    0.6084    2.0057 H       1  UNL1        0.0000
     23 H           3.7448    0.9077    1.7014 H       1  UNL1        0.0000
     24 H           5.3179    1.7226    8.1302 H       1  UNL1        0.0000
     25 H           5.6328    0.2779    7.1768 H       1  UNL1        0.0000
     26 H           6.0363    1.8635    6.5269 H       1  UNL1        0.0000
     27 H           2.8108    1.1474    8.3650 H       1  UNL1        0.0000
     28 H           1.9694    0.5584    6.9167 H       1  UNL1        0.0000
     29 H           3.2964   -0.3613    7.6071 H       1  UNL1        0.0000
     30 H           3.4266    3.2232    7.6123 H       1  UNL1        0.0000
     31 H           4.1687    3.5264    6.0494 H       1  UNL1        0.0000
     32 H           2.4859    2.9951    6.1328 H       1  UNL1        0.0000
     33 H           4.4165   -2.9598    5.4489 H       1  UNL1        0.0000
     34 H           4.6208   -1.6157    6.5588 H       1  UNL1        0.0000
     35 H           3.0553   -1.8810    5.7707 H       1  UNL1        0.0000
     36 H           6.4276   -2.0947    4.2907 H       1  UNL1        0.0000
     37 H           6.4288   -0.5253    3.4990 H       1  UNL1        0.0000
     38 H           6.5301   -0.6227    5.2540 H       1  UNL1        0.0000
     39 H           4.2067   -2.7535    3.1851 H       1  UNL1        0.0000
     40 H           2.8776   -1.5791    3.2037 H       1  UNL1        0.0000
     41 H           4.3570   -1.2417    2.3058 H       1  UNL1        0.0000
@<TRIPOS>BOND
     1    21     6    1
     2    23     6    1
     3     6    22    1
     4     6     3    1
     5    41    14    1
     6    18     5    1
     7    19     5    1
     8    15     4    1
     9     5     3    1
    10     5    20    1
    11    39    14    1
    12    40    14    1
    13    14    11    1
    14     3     4    1
    15     3     2    1
    16    37    13    1
    17     4    17    1
    18     4    16    1
    19    36    13    1
    20    13    11    1
    21    13    38    1
    22     1     2    1
    23    11     2    1
    24    11    12    1
    25     2     7    1
    26    33    12    1
    27    12    35    1
    28    12    34    1
    29    31    10    1
    30    32    10    1
    31     7    10    1
    32     7     8    1
    33     7     9    1
    34    26     8    1
    35    10    30    1
    36    28     9    1
    37     8    25    1
    38     8    24    1
    39     9    29    1
    40     9    27    1
