@<TRIPOS>MOLECULE
1
 30 30 0 0 0
SMALL
GASTEIGER

@<TRIPOS>ATOM
      1 N           3.1781   10.1315    3.6731 N.pl3   1  UNL1       -0.1288
      2 C           1.8718   10.2394    3.3790 C.ar    1  UNL1        0.0792
      3 C           1.2501    9.2603    2.5675 C.ar    1  UNL1       -0.0200
      4 C          -0.0873    9.4049    2.2458 C.ar    1  UNL1       -0.0564
      5 H          -0.5729    8.6757    1.6163 H       1  UNL1        0.0621
      6 C          -0.8216   10.4803    2.7165 C.ar    1  UNL1       -0.0611
      7 H          -1.8635   10.5797    2.4501 H       1  UNL1        0.0618
      8 C          -0.2238   11.4269    3.5311 C.ar    1  UNL1       -0.0564
      9 H          -0.8135   12.2551    3.8929 H       1  UNL1        0.0621
     10 C           1.1099   11.3218    3.8804 C.ar    1  UNL1       -0.0200
     11 C           2.0974    8.1165    2.0640 C.3     1  UNL1       -0.0196
     12 H           2.8138    7.8682    2.8651 H       1  UNL1        0.0344
     13 C           2.9037    8.5810    0.8446 C.3     1  UNL1       -0.0586
     14 H           3.5916    9.3767    1.1361 H       1  UNL1        0.0235
     15 H           2.2368    8.9558    0.0697 H       1  UNL1        0.0235
     16 H           3.4774    7.7507    0.4360 H       1  UNL1        0.0235
     17 C           1.2902    6.8679    1.7159 C.3     1  UNL1       -0.0586
     18 H           0.7172    7.0145    0.8027 H       1  UNL1        0.0235
     19 H           0.6074    6.6151    2.5223 H       1  UNL1        0.0235
     20 H           1.9628    6.0270    1.5607 H       1  UNL1        0.0235
     21 C           1.8066   12.3370    4.7548 C.3     1  UNL1       -0.0196
     22 H           2.6105   11.7982    5.2926 H       1  UNL1        0.0344
     23 C           2.4624   13.3987    3.8614 C.3     1  UNL1       -0.0586
     24 H           1.7222   13.8408    3.1965 H       1  UNL1        0.0235
     25 H           2.8949   14.1941    4.4677 H       1  UNL1        0.0235
     26 H           3.2478   12.9380    3.2545 H       1  UNL1        0.0235
     27 C           0.8824   12.9914    5.7797 C.3     1  UNL1       -0.0586
     28 H           0.1794   13.6681    5.2989 H       1  UNL1        0.0235
     29 H           0.3234   12.2347    6.3239 H       1  UNL1        0.0235
     30 H           1.4663   13.5684    6.4946 H       1  UNL1        0.0235
@<TRIPOS>BOND
     1    15    13    1
     2    16    13    1
     3    18    17    1
     4    13    14    1
     5    13    11    1
     6    20    17    1
     7     5     4    1
     8    17    11    1
     9    17    19    1
    10    11     3    1
    11    11    12    1
    12     4     3   ar
    13     4     6   ar
    14     7     6    1
    15     3     2   ar
    16     6     8   ar
    17    24    23    1
    18    26    23    1
    19     2     1    1
    20     2    10   ar
    21     8    10   ar
    22     8     9    1
    23    23    25    1
    24    23    21    1
    25    10    21    1
    26    21    22    1
    27    21    27    1
    28    28    27    1
    29    27    29    1
    30    27    30    1
