@<TRIPOS>MOLECULE
1
 30 30 0 0 0
SMALL
GASTEIGER

@<TRIPOS>ATOM
      1 N           1.3735    1.7363    3.2083 N.pl3   1  UNL1       -0.1288
      2 C           0.9897    0.4813    3.5092 C.ar    1  UNL1        0.0792
      3 C          -0.3647    0.2164    3.8301 C.ar    1  UNL1       -0.0200
      4 C          -1.3521    1.3582    3.8792 C.3     1  UNL1       -0.0196
      5 H          -0.8814    2.2294    3.3964 H       1  UNL1        0.0344
      6 C          -2.6496    1.0354    3.1371 C.3     1  UNL1       -0.0586
      7 H          -3.2637    1.9302    3.0609 H       1  UNL1        0.0235
      8 H          -3.2247    0.2762    3.6616 H       1  UNL1        0.0235
      9 H          -2.4351    0.6736    2.1341 H       1  UNL1        0.0235
     10 C          -1.6430    1.7304    5.3360 C.3     1  UNL1       -0.0586
     11 H          -0.7183    1.9838    5.8498 H       1  UNL1        0.0235
     12 H          -2.1130    0.8988    5.8576 H       1  UNL1        0.0235
     13 H          -2.3057    2.5918    5.3798 H       1  UNL1        0.0235
     14 C          -0.7470   -1.0766    4.1357 C.ar    1  UNL1       -0.0564
     15 H          -1.7752   -1.2818    4.3932 H       1  UNL1        0.0621
     16 C           0.1655   -2.1170    4.1186 C.ar    1  UNL1       -0.0611
     17 H          -0.1528   -3.1222    4.3522 H       1  UNL1        0.0618
     18 C           1.4891   -1.8633    3.8085 C.ar    1  UNL1       -0.0564
     19 H           2.1954   -2.6808    3.8029 H       1  UNL1        0.0621
     20 C           1.9231   -0.5832    3.5116 C.ar    1  UNL1       -0.0200
     21 C           3.3786   -0.3216    3.2006 C.3     1  UNL1       -0.0196
     22 H           3.5004    0.7672    3.0199 H       1  UNL1        0.0344
     23 C           3.8141   -1.0678    1.9374 C.3     1  UNL1       -0.0586
     24 H           3.1583   -0.8253    1.1043 H       1  UNL1        0.0235
     25 H           3.7782   -2.1428    2.0982 H       1  UNL1        0.0235
     26 H           4.8333   -0.7950    1.6698 H       1  UNL1        0.0235
     27 C           4.2653   -0.7081    4.3870 C.3     1  UNL1       -0.0586
     28 H           3.9807   -0.1451    5.2735 H       1  UNL1        0.0235
     29 H           5.3105   -0.5031    4.1628 H       1  UNL1        0.0235
     30 H           4.1680   -1.7679    4.6104 H       1  UNL1        0.0235
@<TRIPOS>BOND
     1    24    23    1
     2    26    23    1
     3    23    25    1
     4    23    21    1
     5     9     6    1
     6    22    21    1
     7     7     6    1
     8     6     8    1
     9     6     4    1
    10    21    20    1
    11    21    27    1
    12     1     2    1
    13     5     4    1
    14     2    20   ar
    15     2     3   ar
    16    20    18   ar
    17    19    18    1
    18    18    16   ar
    19     3     4    1
    20     3    14   ar
    21     4    10    1
    22    16    14   ar
    23    16    17    1
    24    14    15    1
    25    29    27    1
    26    27    30    1
    27    27    28    1
    28    10    13    1
    29    10    11    1
    30    10    12    1
