@<TRIPOS>MOLECULE
1
 30 30 0 0 0
SMALL
GASTEIGER

@<TRIPOS>ATOM
      1 N          -0.0305    3.4289    6.4228 N.pl3   1  UNL1       -0.1288
      2 C          -0.4230    2.3011    5.7949 C.ar    1  UNL1        0.0792
      3 C           0.0504    1.0257    6.1813 C.ar    1  UNL1       -0.0200
      4 C          -0.4485   -0.1008    5.5506 C.ar    1  UNL1       -0.0564
      5 C          -1.3925   -0.0015    4.5458 C.ar    1  UNL1       -0.0611
      6 C          -1.8328    1.2460    4.1377 C.ar    1  UNL1       -0.0564
      7 C          -1.3575    2.4005    4.7317 C.ar    1  UNL1       -0.0200
      8 C           1.1087    0.9034    7.2495 C.3     1  UNL1       -0.0196
      9 C           2.3764    0.2657    6.6757 C.3     1  UNL1       -0.0586
     10 C           0.6187    0.0975    8.4529 C.3     1  UNL1       -0.0586
     11 C          -1.8283    3.7687    4.3005 C.3     1  UNL1       -0.0196
     12 C          -2.2052    3.8468    2.8217 C.3     1  UNL1       -0.0586
     13 C          -3.0095    4.2068    5.1747 C.3     1  UNL1       -0.0586
     14 H          -0.0965   -1.0768    5.8506 H       1  UNL1        0.0621
     15 H          -1.7797   -0.8922    4.0733 H       1  UNL1        0.0618
     16 H          -2.5602    1.3103    3.3432 H       1  UNL1        0.0621
     17 H           1.3521    1.9166    7.5921 H       1  UNL1        0.0344
     18 H           2.7165    0.8124    5.8004 H       1  UNL1        0.0235
     19 H           2.1924   -0.7666    6.3862 H       1  UNL1        0.0235
     20 H           3.1679    0.2816    7.4206 H       1  UNL1        0.0235
     21 H          -0.2669    0.5568    8.8810 H       1  UNL1        0.0235
     22 H           1.3965    0.0693    9.2128 H       1  UNL1        0.0235
     23 H           0.3770   -0.9241    8.1676 H       1  UNL1        0.0235
     24 H          -0.9940    4.4738    4.4779 H       1  UNL1        0.0344
     25 H          -2.3396    4.8868    2.5308 H       1  UNL1        0.0235
     26 H          -3.1376    3.3224    2.6259 H       1  UNL1        0.0235
     27 H          -1.4226    3.4136    2.2033 H       1  UNL1        0.0235
     28 H          -3.3933    5.1683    4.8398 H       1  UNL1        0.0235
     29 H          -2.6964    4.3000    6.2176 H       1  UNL1        0.0235
     30 H          -3.8112    3.4722    5.1176 H       1  UNL1        0.0235
@<TRIPOS>BOND
     1    27    12    1
     2    25    12    1
     3    26    12    1
     4    12    11    1
     5    16     6    1
     6    15     5    1
     7     6     5   ar
     8     6     7   ar
     9    11    24    1
    10    11     7    1
    11    11    13    1
    12     5     4   ar
    13     7     2   ar
    14    28    13    1
    15    30    13    1
    16    13    29    1
    17     4    14    1
    18     4     3   ar
    19     2     3   ar
    20     2     1    1
    21    18     9    1
    22     3     8    1
    23    19     9    1
    24     9     8    1
    25     9    20    1
    26     8    17    1
    27     8    10    1
    28    23    10    1
    29    10    21    1
    30    10    22    1
