@<TRIPOS>MOLECULE
1
 30 30 0 0 0
SMALL
GASTEIGER

@<TRIPOS>ATOM
      1 N          14.7783    7.2373   12.6859 N.pl3   1  UNL1       -0.1288
      2 C          14.0196    6.6907   13.6616 C.ar    1  UNL1        0.0792
      3 C          13.2352    5.5338   13.4573 C.ar    1  UNL1       -0.0200
      4 C          12.5219    5.0022   14.5181 C.ar    1  UNL1       -0.0564
      5 C          12.5702    5.5748   15.7749 C.ar    1  UNL1       -0.0611
      6 C          13.3249    6.7173   15.9785 C.ar    1  UNL1       -0.0564
      7 C          14.0376    7.2966   14.9453 C.ar    1  UNL1       -0.0200
      8 C          13.1573    4.9014   12.0893 C.3     1  UNL1       -0.0196
      9 C          11.7451    5.0419   11.5153 C.3     1  UNL1       -0.0586
     10 C          13.5630    3.4273   12.1213 C.3     1  UNL1       -0.0586
     11 C          14.8605    8.5483   15.1425 C.3     1  UNL1       -0.0196
     12 C          16.3252    8.1736   15.4025 C.3     1  UNL1       -0.0586
     13 C          14.3438    9.4550   16.2586 C.3     1  UNL1       -0.0586
     14 H          11.9201    4.1190   14.3629 H       1  UNL1        0.0621
     15 H          12.0179    5.1382   16.5940 H       1  UNL1        0.0618
     16 H          13.3499    7.1596   16.9625 H       1  UNL1        0.0621
     17 H          13.8577    5.4356   11.4342 H       1  UNL1        0.0344
     18 H          11.4296    6.0819   11.5276 H       1  UNL1        0.0235
     19 H          11.0346    4.4621   12.1006 H       1  UNL1        0.0235
     20 H          11.7257    4.6834   10.4888 H       1  UNL1        0.0235
     21 H          14.5420    3.3136   12.5781 H       1  UNL1        0.0235
     22 H          13.6043    3.0365   11.1073 H       1  UNL1        0.0235
     23 H          12.8478    2.8369   12.6894 H       1  UNL1        0.0235
     24 H          14.8172    9.1159   14.1968 H       1  UNL1        0.0344
     25 H          16.7115    7.5512   14.5912 H       1  UNL1        0.0235
     26 H          16.4117    7.6143   16.3330 H       1  UNL1        0.0235
     27 H          16.9423    9.0680   15.4754 H       1  UNL1        0.0235
     28 H          13.2777    9.6356   16.1430 H       1  UNL1        0.0235
     29 H          14.8615   10.4117   16.2236 H       1  UNL1        0.0235
     30 H          14.5214    9.0155   17.2377 H       1  UNL1        0.0235
@<TRIPOS>BOND
     1    20     9    1
     2    22    10    1
     3    17     8    1
     4     9    18    1
     5     9     8    1
     6     9    19    1
     7     8    10    1
     8     8     3    1
     9    10    21    1
    10    10    23    1
    11     1     2    1
    12     3     2   ar
    13     3     4   ar
    14     2     7   ar
    15    24    11    1
    16    14     4    1
    17     4     5   ar
    18    25    12    1
    19     7    11    1
    20     7     6   ar
    21    11    12    1
    22    11    13    1
    23    12    27    1
    24    12    26    1
    25     5     6   ar
    26     5    15    1
    27     6    16    1
    28    28    13    1
    29    29    13    1
    30    13    30    1
