@<TRIPOS>MOLECULE
2
 14 13 0 0 0
SMALL
GASTEIGER

@<TRIPOS>ATOM
      1 SI          4.7759    6.7419    5.3389 Si      1  UNL1        0.0000
      2 N           5.4151    5.1886    5.1080 N.3     1  UNL1        0.0000
      3 C           5.1270    7.8733    3.8196 C.3     1  UNL1        0.0000
      4 H           6.1951    7.9574    3.6374 H       1  UNL1        0.0000
      5 H           4.7439    8.8762    3.9812 H       1  UNL1        0.0000
      6 H           4.6643    7.4865    2.9167 H       1  UNL1        0.0000
      7 C           2.8700    6.6236    5.5310 C.3     1  UNL1        0.0000
      8 H           2.6055    5.9787    6.3630 H       1  UNL1        0.0000
      9 H           2.4114    6.2145    4.6355 H       1  UNL1        0.0000
     10 H           2.4304    7.5988    5.7132 H       1  UNL1        0.0000
     11 C           5.4736    7.7185    6.8362 C.3     1  UNL1        0.0000
     12 H           6.5588    7.7324    6.8216 H       1  UNL1        0.0000
     13 H           5.1652    7.2889    7.7823 H       1  UNL1        0.0000
     14 H           5.1323    8.7494    6.8145 H       1  UNL1        0.0000
@<TRIPOS>BOND
     1     6     3    1
     2     4     3    1
     3     3     5    1
     4     3     1    1
     5     9     7    1
     6     2     1    1
     7     1     7    1
     8     1    11    1
     9     7    10    1
    10     7     8    1
    11    14    11    1
    12    12    11    1
    13    11    13    1
