@<TRIPOS>MOLECULE
2
 14 13 0 0 0
SMALL
GASTEIGER

@<TRIPOS>ATOM
      1 SI          3.0210    9.3391    0.0818 Si      1  UNL1        0.0000
      2 N           3.7198    8.7665    1.5375 N.3     1  UNL1        0.0000
      3 C           4.1458    8.8783   -1.4076 C.3     1  UNL1        0.0000
      4 H           4.9918    8.2968   -1.0506 H       1  UNL1        0.0000
      5 H           4.5331    9.7589   -1.9097 H       1  UNL1        0.0000
      6 H           3.6179    8.2830   -2.1454 H       1  UNL1        0.0000
      7 C           2.8147   11.2464    0.1651 C.3     1  UNL1        0.0000
      8 H           3.7587   11.7345    0.3878 H       1  UNL1        0.0000
      9 H           2.1088   11.5306    0.9395 H       1  UNL1        0.0000
     10 H           2.4484   11.6420   -0.7767 H       1  UNL1        0.0000
     11 C           1.2860    8.5527   -0.1549 C.3     1  UNL1        0.0000
     12 H           1.2919    7.5093    0.1434 H       1  UNL1        0.0000
     13 H           0.9689    8.6071   -1.1913 H       1  UNL1        0.0000
     14 H           0.5377    9.0602    0.4443 H       1  UNL1        0.0000
@<TRIPOS>BOND
     1     6     3    1
     2     5     3    1
     3     3     4    1
     4     3     1    1
     5    13    11    1
     6    10     7    1
     7    11     1    1
     8    11    12    1
     9    11    14    1
    10     1     7    1
    11     1     2    1
    12     7     8    1
    13     7     9    1
