@<TRIPOS>MOLECULE
2
 14 13 0 0 0
SMALL
GASTEIGER

@<TRIPOS>ATOM
      1 SI          7.1079    6.1803    1.8794 Si      1  UNL1        0.0000
      2 N           5.7198    7.0963    2.2243 N.3     1  UNL1        0.0000
      3 C           7.8598    6.5825    0.1619 C.3     1  UNL1        0.0000
      4 H           7.0779    6.6677   -0.5860 H       1  UNL1        0.0000
      5 H           8.5500    5.8092   -0.1607 H       1  UNL1        0.0000
      6 H           8.4024    7.5221    0.1771 H       1  UNL1        0.0000
      7 C           8.4779    6.4638    3.2055 C.3     1  UNL1        0.0000
      8 H           8.7593    7.5084    3.2893 H       1  UNL1        0.0000
      9 H           9.3750    5.9063    2.9540 H       1  UNL1        0.0000
     10 H           8.1484    6.1240    4.1841 H       1  UNL1        0.0000
     11 C           6.8253    4.2820    1.9470 C.3     1  UNL1        0.0000
     12 H           6.2649    3.9308    1.0884 H       1  UNL1        0.0000
     13 H           6.2884    3.9859    2.8435 H       1  UNL1        0.0000
     14 H           7.7782    3.7613    1.9511 H       1  UNL1        0.0000
@<TRIPOS>BOND
     1     4     3    1
     2     5     3    1
     3     3     6    1
     4     3     1    1
     5    12    11    1
     6     1    11    1
     7     1     2    1
     8     1     7    1
     9    11    14    1
    10    11    13    1
    11     9     7    1
    12     7     8    1
    13     7    10    1
