@<TRIPOS>MOLECULE
1
 30 30 0 0 0
SMALL
GASTEIGER

@<TRIPOS>ATOM
      1 N           6.4522    2.7940    5.5457 N.pl3   1  UNL1       -0.1288
      2 C           6.6911    2.1082    6.6715 C.ar    1  UNL1        0.0792
      3 C           7.8384    1.2867    6.8154 C.ar    1  UNL1       -0.0200
      4 C           8.8609    1.2109    5.7069 C.3     1  UNL1       -0.0196
      5 H           8.5522    1.9091    4.9201 H       1  UNL1        0.0344
      6 C           8.9115   -0.2039    5.1249 C.3     1  UNL1       -0.0586
      7 H           9.6033   -0.2405    4.2852 H       1  UNL1        0.0235
      8 H           7.9239   -0.5095    4.7870 H       1  UNL1        0.0235
      9 H           9.2494   -0.9160    5.8745 H       1  UNL1        0.0235
     10 C          10.2462    1.6275    6.2030 C.3     1  UNL1       -0.0586
     11 H          10.9542    1.6272    5.3774 H       1  UNL1        0.0235
     12 H          10.6079    0.9435    6.9670 H       1  UNL1        0.0235
     13 H          10.2074    2.6276    6.6251 H       1  UNL1        0.0235
     14 C           8.0168    0.5441    7.9690 C.ar    1  UNL1       -0.0564
     15 H           8.8911   -0.0825    8.0673 H       1  UNL1        0.0621
     16 C           7.0982    0.5845    9.0005 C.ar    1  UNL1       -0.0611
     17 H           7.2537   -0.0009    9.8946 H       1  UNL1        0.0618
     18 C           5.9811    1.3929    8.8792 C.ar    1  UNL1       -0.0564
     19 H           5.2763    1.4345    9.6956 H       1  UNL1        0.0621
     20 C           5.7573    2.1528    7.7467 C.ar    1  UNL1       -0.0200
     21 C           4.5672    3.0764    7.6610 C.3     1  UNL1       -0.0196
     22 H           4.4013    3.3183    6.5975 H       1  UNL1        0.0344
     23 C           3.2921    2.4686    8.2467 C.3     1  UNL1       -0.0586
     24 H           3.1169    1.4763    7.8373 H       1  UNL1        0.0235
     25 H           2.4388    3.0996    8.0086 H       1  UNL1        0.0235
     26 H           3.3538    2.3914    9.3297 H       1  UNL1        0.0235
     27 C           4.9222    4.3835    8.3759 C.3     1  UNL1       -0.0586
     28 H           4.0735    5.0629    8.3611 H       1  UNL1        0.0235
     29 H           5.7547    4.8522    7.8561 H       1  UNL1        0.0235
     30 H           5.2008    4.1897    9.4105 H       1  UNL1        0.0235
@<TRIPOS>BOND
     1     7     6    1
     2     8     6    1
     3     5     4    1
     4     6     4    1
     5     6     9    1
     6    11    10    1
     7     1     2    1
     8     4    10    1
     9     4     3    1
    10    10    13    1
    11    10    12    1
    12    22    21    1
    13     2     3   ar
    14     2    20   ar
    15     3    14   ar
    16    21    20    1
    17    21    23    1
    18    21    27    1
    19    20    18   ar
    20    24    23    1
    21    29    27    1
    22    14    15    1
    23    14    16   ar
    24    25    23    1
    25    23    26    1
    26    28    27    1
    27    27    30    1
    28    18    16   ar
    29    18    19    1
    30    16    17    1
