@<TRIPOS>MOLECULE
1
 18 18 0 0 0
SMALL
GASTEIGER

@<TRIPOS>ATOM
      1 N          11.2518    7.9005    3.5354 N.pl3   1  UNL1       -0.1288
      2 C          11.1560    8.6992    2.4582 C.ar    1  UNL1        0.0782
      3 C          10.0797    9.6078    2.3046 C.ar    1  UNL1       -0.0257
      4 C           9.9983   10.3900    1.1659 C.ar    1  UNL1       -0.0570
      5 C          10.9513   10.3069    0.1660 C.ar    1  UNL1       -0.0611
      6 C          12.0117    9.4274    0.3088 C.ar    1  UNL1       -0.0570
      7 C          12.1320    8.6290    1.4304 C.ar    1  UNL1       -0.0257
      8 C           9.0386    9.7273    3.3790 C.3     1  UNL1       -0.0378
      9 C          13.2951    7.6950    1.5894 C.3     1  UNL1       -0.0378
     10 H           9.1697   11.0767    1.0618 H       1  UNL1        0.0621
     11 H          10.8699   10.9225   -0.7171 H       1  UNL1        0.0618
     12 H          12.7608    9.3610   -0.4680 H       1  UNL1        0.0621
     13 H           8.0392    9.7278    2.9478 H       1  UNL1        0.0278
     14 H           9.1420    8.8950    4.0778 H       1  UNL1        0.0278
     15 H           9.1644   10.6621    3.9236 H       1  UNL1        0.0278
     16 H          13.7378    7.4650    0.6230 H       1  UNL1        0.0278
     17 H          14.0579    8.1551    2.2197 H       1  UNL1        0.0278
     18 H          12.9695    6.7727    2.0761 H       1  UNL1        0.0278
@<TRIPOS>BOND
     1    11     5    1
     2    12     6    1
     3     5     6   ar
     4     5     4   ar
     5     6     7   ar
     6    16     9    1
     7    10     4    1
     8     4     3   ar
     9     7     9    1
    10     7     2   ar
    11     9    18    1
    12     9    17    1
    13     3     2   ar
    14     3     8    1
    15     2     1    1
    16    13     8    1
    17     8    15    1
    18     8    14    1
