@<TRIPOS>MOLECULE
1
 12 12 0 0 0
SMALL
GASTEIGER

@<TRIPOS>ATOM
      1 N          -1.0789   -0.5389    2.7342 N.pl3   1  UNL1       -0.1294
      2 C          -1.8044   -1.4396    2.0752 C.ar    1  UNL1        0.0724
      3 C          -1.6815   -1.6443    0.6910 C.ar    1  UNL1       -0.0372
      4 C          -2.4591   -2.5898    0.0567 C.ar    1  UNL1       -0.0599
      5 C          -3.3704   -3.3493    0.7743 C.ar    1  UNL1       -0.0616
      6 C          -3.5017   -3.1575    2.1426 C.ar    1  UNL1       -0.0599
      7 C          -2.7331   -2.2178    2.7923 C.ar    1  UNL1       -0.0372
      8 H          -0.9682   -1.0467    0.1402 H       1  UNL1        0.0637
      9 H          -2.3556   -2.7380   -1.0087 H       1  UNL1        0.0618
     10 H          -3.9759   -4.0875    0.2702 H       1  UNL1        0.0618
     11 H          -4.2112   -3.7483    2.7037 H       1  UNL1        0.0618
     12 H          -2.8194   -2.0513    3.8598 H       1  UNL1        0.0637
@<TRIPOS>BOND
     1     9     4    1
     2     4     3   ar
     3     4     5   ar
     4     8     3    1
     5    10     5    1
     6     3     2   ar
     7     5     6   ar
     8     2     1    1
     9     2     7   ar
    10     6    11    1
    11     6     7   ar
    12     7    12    1
