@<TRIPOS>MOLECULE
1
 30 30 0 0 0
SMALL
GASTEIGER

@<TRIPOS>ATOM
      1 N          -2.0336    6.4388    3.9844 N.pl3   1  UNL1       -0.1288
      2 C          -1.2501    6.4123    2.8974 C.ar    1  UNL1        0.0792
      3 C          -0.8759    5.1719    2.3016 C.ar    1  UNL1       -0.0200
      4 C          -0.1785    5.1560    1.1089 C.ar    1  UNL1       -0.0564
      5 H           0.0950    4.2101    0.6659 H       1  UNL1        0.0621
      6 C           0.1855    6.3276    0.4708 C.ar    1  UNL1       -0.0611
      7 H           0.7158    6.2962   -0.4695 H       1  UNL1        0.0618
      8 C          -0.1041    7.5367    1.0731 C.ar    1  UNL1       -0.0564
      9 H           0.2248    8.4503    0.6002 H       1  UNL1        0.0621
     10 C          -0.7923    7.6072    2.2713 C.ar    1  UNL1       -0.0200
     11 C          -1.1640    3.8759    3.0182 C.3     1  UNL1       -0.0196
     12 H          -1.9720    4.0725    3.7340 H       1  UNL1        0.0344
     13 C          -1.5838    2.7366    2.0883 C.3     1  UNL1       -0.0586
     14 H          -0.7363    2.3677    1.5151 H       1  UNL1        0.0235
     15 H          -2.3545    3.0559    1.3907 H       1  UNL1        0.0235
     16 H          -1.9720    1.9028    2.6714 H       1  UNL1        0.0235
     17 C           0.0936    3.4660    3.7932 C.3     1  UNL1       -0.0586
     18 H          -0.0565    2.5137    4.2984 H       1  UNL1        0.0235
     19 H           0.3434    4.2218    4.5344 H       1  UNL1        0.0235
     20 H           0.9373    3.3638    3.1126 H       1  UNL1        0.0235
     21 C          -0.9737    8.9548    2.9262 C.3     1  UNL1       -0.0196
     22 H          -1.5462    8.8092    3.8476 H       1  UNL1        0.0344
     23 C           0.3973    9.5440    3.2808 C.3     1  UNL1       -0.0586
     24 H           1.0090    8.8173    3.8133 H       1  UNL1        0.0235
     25 H           0.2772   10.4255    3.9070 H       1  UNL1        0.0235
     26 H           0.9353    9.8350    2.3811 H       1  UNL1        0.0235
     27 C          -1.7391    9.9376    2.0394 C.3     1  UNL1       -0.0586
     28 H          -1.2075   10.1241    1.1086 H       1  UNL1        0.0235
     29 H          -1.8585   10.8848    2.5603 H       1  UNL1        0.0235
     30 H          -2.7277    9.5547    1.8027 H       1  UNL1        0.0235
@<TRIPOS>BOND
     1     7     6    1
     2     6     8   ar
     3     6     4   ar
     4     9     8    1
     5     5     4    1
     6     8    10   ar
     7    28    27    1
     8     4     3   ar
     9    15    13    1
    10    14    13    1
    11    30    27    1
    12    27    29    1
    13    27    21    1
    14    13    16    1
    15    13    11    1
    16    10     2   ar
    17    10    21    1
    18     3     2   ar
    19     3    11    1
    20    26    23    1
    21     2     1    1
    22    21    23    1
    23    21    22    1
    24    11    12    1
    25    11    17    1
    26    20    17    1
    27    23    24    1
    28    23    25    1
    29    17    18    1
    30    17    19    1
