@<TRIPOS>MOLECULE
1
 66 68 0 0 0
SMALL
GASTEIGER

@<TRIPOS>ATOM
      1 N          17.1401   12.7920   13.1765 N.3     1  UNL1       -0.0877
      2 N          17.7313   15.0855   13.5905 N.pl3   1  UNL1       -0.2640
      3 N          18.1697   13.5921   15.1896 N.pl3   1  UNL1       -0.2640
      4 C          17.6220   13.6926   13.8721 C.3     1  UNL1        0.2542
      5 C          18.2744   15.7446   14.6828 C.2     1  UNL1        0.0144
      6 H          18.4164   16.8072   14.6741 H       1  UNL1        0.0797
      7 C          18.5505   14.8460   15.6367 C.2     1  UNL1        0.0144
      8 H          18.9728   14.9798   16.6130 H       1  UNL1        0.0797
      9 C          17.6097   15.7335   12.3431 C.ar    1  UNL1        0.0436
     10 C          16.5578   16.6331   12.1362 C.ar    1  UNL1       -0.0231
     11 C          16.5157   17.3522   10.9485 C.ar    1  UNL1       -0.0565
     12 H          15.7294   18.0748   10.7862 H       1  UNL1        0.0621
     13 C          17.4725   17.1668    9.9713 C.ar    1  UNL1       -0.0611
     14 H          17.4256   17.7314    9.0514 H       1  UNL1        0.0618
     15 C          18.5047   16.2714   10.1808 C.ar    1  UNL1       -0.0565
     16 H          19.2569   16.1541    9.4175 H       1  UNL1        0.0621
     17 C          18.6026   15.5575   11.3659 C.ar    1  UNL1       -0.0231
     18 C          15.4992   16.8650   13.1885 C.3     1  UNL1       -0.0197
     19 H          15.6365   16.1292   13.9864 H       1  UNL1        0.0344
     20 C          14.0962   16.6752   12.6093 C.3     1  UNL1       -0.0586
     21 H          13.9099   17.3632   11.7879 H       1  UNL1        0.0235
     22 H          13.3490   16.8679   13.3769 H       1  UNL1        0.0235
     23 H          13.9769   15.6561   12.2503 H       1  UNL1        0.0235
     24 C          15.6431   18.2673   13.7874 C.3     1  UNL1       -0.0586
     25 H          16.6375   18.4084   14.2043 H       1  UNL1        0.0235
     26 H          14.9146   18.4150   14.5820 H       1  UNL1        0.0235
     27 H          15.4827   19.0287   13.0273 H       1  UNL1        0.0235
     28 C          19.8118   14.6976   11.6542 C.3     1  UNL1       -0.0197
     29 H          19.4926   13.8640   12.2865 H       1  UNL1        0.0344
     30 C          20.4646   14.1119   10.4044 C.3     1  UNL1       -0.0586
     31 H          19.7281   13.6131    9.7821 H       1  UNL1        0.0235
     32 H          21.2157   13.3820   10.6987 H       1  UNL1        0.0235
     33 H          20.9640   14.8824    9.8206 H       1  UNL1        0.0235
     34 C          20.8427   15.5412   12.4161 C.3     1  UNL1       -0.0586
     35 H          21.1324   16.4035   11.8176 H       1  UNL1        0.0235
     36 H          21.7329   14.9510   12.6234 H       1  UNL1        0.0235
     37 H          20.4386   15.9004   13.3597 H       1  UNL1        0.0235
     38 C          18.5661   12.4193   15.8642 C.ar    1  UNL1        0.0436
     39 C          17.6419   11.7344   16.6602 C.ar    1  UNL1       -0.0231
     40 C          18.0656   10.6248   17.3786 C.ar    1  UNL1       -0.0565
     41 H          17.3672   10.0962   18.0103 H       1  UNL1        0.0621
     42 C          19.3766   10.1942   17.3108 C.ar    1  UNL1       -0.0611
     43 H          19.6949    9.3344   17.8827 H       1  UNL1        0.0618
     44 C          20.2820   10.8726   16.5180 C.ar    1  UNL1       -0.0565
     45 H          21.3064   10.5336   16.4769 H       1  UNL1        0.0621
     46 C          19.8983   11.9886   15.7878 C.ar    1  UNL1       -0.0231
     47 C          16.2181   12.2176   16.7710 C.3     1  UNL1       -0.0197
     48 H          16.1051   13.0832   16.1132 H       1  UNL1        0.0344
     49 C          15.2393   11.1363   16.3136 C.3     1  UNL1       -0.0586
     50 H          15.3909   10.9091   15.2527 H       1  UNL1        0.0235
     51 H          14.2160   11.4754   16.4521 H       1  UNL1        0.0235
     52 H          15.3728   10.2278   16.8935 H       1  UNL1        0.0235
     53 C          15.9143   12.6580   18.2061 C.3     1  UNL1       -0.0586
     54 H          15.9835   11.8192   18.8947 H       1  UNL1        0.0235
     55 H          14.9088   13.0695   18.2695 H       1  UNL1        0.0235
     56 H          16.6192   13.4224   18.5267 H       1  UNL1        0.0235
     57 C          20.9181   12.7252   14.9514 C.3     1  UNL1       -0.0197
     58 H          20.4224   13.5558   14.4456 H       1  UNL1        0.0344
     59 C          22.0193   13.3099   15.8397 C.3     1  UNL1       -0.0586
     60 H          21.5893   13.9544   16.6033 H       1  UNL1        0.0235
     61 H          22.7099   13.9008   15.2416 H       1  UNL1        0.0235
     62 H          22.5815   12.5215   16.3344 H       1  UNL1        0.0235
     63 C          21.5147   11.8149   13.8765 C.3     1  UNL1       -0.0586
     64 H          22.0074   10.9523   14.3188 H       1  UNL1        0.0235
     65 H          22.2494   12.3642   13.2911 H       1  UNL1        0.0235
     66 H          20.7365   11.4615   13.2043 H       1  UNL1        0.0235
@<TRIPOS>BOND
     1    14    13    1
     2    16    15    1
     3    31    30    1
     4    33    30    1
     5    13    15   ar
     6    13    11   ar
     7    15    17   ar
     8    30    32    1
     9    30    28    1
    10    12    11    1
    11    11    10   ar
    12    17    28    1
    13    17     9   ar
    14    28    29    1
    15    28    34    1
    16    21    20    1
    17    35    34    1
    18    10     9   ar
    19    10    18    1
    20    23    20    1
    21     9     2    1
    22    34    36    1
    23    34    37    1
    24    20    18    1
    25    20    22    1
    26    27    24    1
    27     1     4    1
    28    18    24    1
    29    18    19    1
    30    66    63    1
    31    65    63    1
    32     2     4    1
    33     2     5    1
    34    24    25    1
    35    24    26    1
    36     4     3    1
    37    63    64    1
    38    63    57    1
    39    58    57    1
    40     6     5    1
    41     5     7    2
    42    57    46    1
    43    57    59    1
    44     3     7    1
    45     3    38    1
    46    61    59    1
    47    50    49    1
    48     7     8    1
    49    46    38   ar
    50    46    44   ar
    51    59    62    1
    52    59    60    1
    53    38    39   ar
    54    48    47    1
    55    49    51    1
    56    49    47    1
    57    49    52    1
    58    45    44    1
    59    44    42   ar
    60    39    47    1
    61    39    40   ar
    62    47    53    1
    63    42    40   ar
    64    42    43    1
    65    40    41    1
    66    53    55    1
    67    53    56    1
    68    53    54    1
