@<TRIPOS>MOLECULE
1
 66 68 0 0 0
SMALL
GASTEIGER

@<TRIPOS>ATOM
      1 N          13.9725   10.5898   12.7789 N.3     1  UNL1       -0.0877
      2 N          11.6412   10.5636   13.3129 N.pl3   1  UNL1       -0.2640
      3 N          12.7637    8.6425   13.5159 N.pl3   1  UNL1       -0.2640
      4 C          12.9451   10.0033   13.1291 C.3     1  UNL1        0.2542
      5 C          10.7718    9.5882   13.7702 C.2     1  UNL1        0.0144
      6 H           9.7461    9.8164   13.9832 H       1  UNL1        0.0797
      7 C          11.4479    8.4399   13.9062 C.2     1  UNL1        0.0144
      8 H          11.1131    7.4805   14.2481 H       1  UNL1        0.0797
      9 C          11.1966   11.7986   12.8050 C.ar    1  UNL1        0.0436
     10 C          10.4324   11.8380   11.6289 C.ar    1  UNL1       -0.0231
     11 C           9.9766   13.0663   11.1709 C.ar    1  UNL1       -0.0565
     12 H           9.3850   13.1134   10.2689 H       1  UNL1        0.0621
     13 C          10.2666   14.2333   11.8510 C.ar    1  UNL1       -0.0611
     14 H           9.8974   15.1798   11.4832 H       1  UNL1        0.0618
     15 C          11.0226   14.1846   13.0060 C.ar    1  UNL1       -0.0565
     16 H          11.2319   15.0996   13.5390 H       1  UNL1        0.0621
     17 C          11.4963   12.9772   13.4979 C.ar    1  UNL1       -0.0231
     18 C          10.1107   10.5865   10.8445 C.3     1  UNL1       -0.0197
     19 H          10.4904    9.7184   11.3868 H       1  UNL1        0.0344
     20 C          10.8038   10.6225    9.4804 C.3     1  UNL1       -0.0586
     21 H          10.5130   11.5057    8.9164 H       1  UNL1        0.0235
     22 H          10.5359    9.7414    8.9007 H       1  UNL1        0.0235
     23 H          11.8836   10.6364    9.6107 H       1  UNL1        0.0235
     24 C           8.5996   10.4057   10.6840 C.3     1  UNL1       -0.0586
     25 H           8.1096   10.4239   11.6551 H       1  UNL1        0.0235
     26 H           8.3862    9.4499   10.2096 H       1  UNL1        0.0235
     27 H           8.1712   11.1939   10.0701 H       1  UNL1        0.0235
     28 C          12.2692   12.9326   14.7919 C.3     1  UNL1       -0.0197
     29 H          12.5788   11.8990   14.9649 H       1  UNL1        0.0344
     30 C          11.3737   13.3704   15.9551 C.3     1  UNL1       -0.0586
     31 H          11.0612   14.4054   15.8375 H       1  UNL1        0.0235
     32 H          11.9089   13.2799   16.8985 H       1  UNL1        0.0235
     33 H          10.4826   12.7479   16.0044 H       1  UNL1        0.0235
     34 C          13.5238   13.8009   14.7141 C.3     1  UNL1       -0.0586
     35 H          14.1970   13.4235   13.9366 H       1  UNL1        0.0235
     36 H          14.0456   13.7876   15.6674 H       1  UNL1        0.0235
     37 H          13.2656   14.8309   14.4890 H       1  UNL1        0.0235
     38 C          13.6072    7.5419   13.2516 C.ar    1  UNL1        0.0436
     39 C          14.2409    6.8912   14.3172 C.ar    1  UNL1       -0.0231
     40 C          14.9519    5.7258   14.0631 C.ar    1  UNL1       -0.0565
     41 H          15.4157    5.1906   14.8782 H       1  UNL1        0.0621
     42 C          15.0584    5.2235   12.7814 C.ar    1  UNL1       -0.0611
     43 H          15.6102    4.3128   12.5998 H       1  UNL1        0.0618
     44 C          14.4451    5.8818   11.7314 C.ar    1  UNL1       -0.0565
     45 H          14.5245    5.4713   10.7373 H       1  UNL1        0.0621
     46 C          13.7086    7.0386   11.9447 C.ar    1  UNL1       -0.0231
     47 C          14.1171    7.4066   15.7318 C.3     1  UNL1       -0.0197
     48 H          13.6941    8.4151   15.6917 H       1  UNL1        0.0344
     49 C          15.4812    7.4898   16.4181 C.3     1  UNL1       -0.0586
     50 H          15.9220    6.5038   16.5459 H       1  UNL1        0.0235
     51 H          15.3724    7.9316   17.4070 H       1  UNL1        0.0235
     52 H          16.1590    8.1034   15.8304 H       1  UNL1        0.0235
     53 C          13.1758    6.5107   16.5426 C.3     1  UNL1       -0.0586
     54 H          12.1894    6.4734   16.0877 H       1  UNL1        0.0235
     55 H          13.0707    6.8936   17.5557 H       1  UNL1        0.0235
     56 H          13.5652    5.4960   16.5953 H       1  UNL1        0.0235
     57 C          12.9409    7.6817   10.8128 C.3     1  UNL1       -0.0197
     58 H          12.8423    8.7486   11.0328 H       1  UNL1        0.0344
     59 C          11.5451    7.0489   10.7471 C.3     1  UNL1       -0.0586
     60 H          11.6300    5.9766   10.5780 H       1  UNL1        0.0235
     61 H          10.9715    7.4825    9.9312 H       1  UNL1        0.0235
     62 H          11.0008    7.2060   11.6756 H       1  UNL1        0.0235
     63 C          13.6270    7.5484    9.4536 C.3     1  UNL1       -0.0586
     64 H          14.6717    7.8425    9.5152 H       1  UNL1        0.0235
     65 H          13.1326    8.1955    8.7320 H       1  UNL1        0.0235
     66 H          13.5702    6.5288    9.0786 H       1  UNL1        0.0235
@<TRIPOS>BOND
     1    65    63    1
     2    22    20    1
     3    21    20    1
     4    66    63    1
     5    63    64    1
     6    63    57    1
     7    20    23    1
     8    20    18    1
     9    61    59    1
    10    27    24    1
    11    26    24    1
    12    12    11    1
    13    60    59    1
    14    24    18    1
    15    24    25    1
    16    45    44    1
    17    59    57    1
    18    59    62    1
    19    57    58    1
    20    57    46    1
    21    18    19    1
    22    18    10    1
    23    11    10   ar
    24    11    13   ar
    25    14    13    1
    26    10     9   ar
    27    44    46   ar
    28    44    42   ar
    29    13    15   ar
    30    46    38   ar
    31    43    42    1
    32     1     4    1
    33    42    40   ar
    34     9     2    1
    35     9    17   ar
    36    15    17   ar
    37    15    16    1
    38     4     2    1
    39     4     3    1
    40    38     3    1
    41    38    39   ar
    42     2     5    1
    43    17    28    1
    44     3     7    1
    45     5     7    2
    46     5     6    1
    47     7     8    1
    48    35    34    1
    49    40    39   ar
    50    40    41    1
    51    39    47    1
    52    37    34    1
    53    34    28    1
    54    34    36    1
    55    28    29    1
    56    28    30    1
    57    48    47    1
    58    47    49    1
    59    47    53    1
    60    52    49    1
    61    31    30    1
    62    30    33    1
    63    30    32    1
    64    54    53    1
    65    49    50    1
    66    49    51    1
    67    53    56    1
    68    53    55    1
