@<TRIPOS>MOLECULE
1
 14 13 0 0 0
SMALL
GASTEIGER

@<TRIPOS>ATOM
      1 N           4.1048   -4.1005   11.8400 N.3     1  UNL1       -0.1371
      2 C           5.3497   -4.2439   11.2095 C.3     1  UNL1        0.0466
      3 C           5.3282   -5.4707   10.2797 C.3     1  UNL1       -0.0443
      4 C           6.4107   -4.4472   12.3098 C.3     1  UNL1       -0.0443
      5 C           5.6754   -2.9700   10.4065 C.3     1  UNL1       -0.0443
      6 H           6.6532   -3.0616    9.9434 H       1  UNL1        0.0248
      7 H           6.3526   -3.6296   13.0271 H       1  UNL1        0.0248
      8 H           7.4051   -4.4774   11.8753 H       1  UNL1        0.0248
      9 H           4.9320   -2.8175    9.6284 H       1  UNL1        0.0248
     10 H           6.2128   -5.3861   12.8221 H       1  UNL1        0.0248
     11 H           5.6760   -2.1075   11.0692 H       1  UNL1        0.0248
     12 H           5.0607   -6.3567   10.8527 H       1  UNL1        0.0248
     13 H           4.5946   -5.3253    9.4918 H       1  UNL1        0.0248
     14 H           6.3061   -5.6176    9.8311 H       1  UNL1        0.0248
@<TRIPOS>BOND
     1    13     3    1
     2     9     5    1
     3    14     3    1
     4     6     5    1
     5     3    12    1
     6     3     2    1
     7     5    11    1
     8     5     2    1
     9     2     1    1
    10     2     4    1
    11     8     4    1
    12     4    10    1
    13     4     7    1
