@<TRIPOS>MOLECULE
1
 14 13 0 0 0
SMALL
GASTEIGER

@<TRIPOS>ATOM
      1 N           4.4785    3.5781    1.8673 N.3     1  UNL1       -0.1371
      2 C           5.6332    3.7096    2.6697 C.3     1  UNL1        0.0466
      3 C           5.6259    5.1337    3.2617 C.3     1  UNL1       -0.0443
      4 H           5.6588    5.8575    2.4506 H       1  UNL1        0.0248
      5 H           6.4837    5.2827    3.9117 H       1  UNL1        0.0248
      6 H           4.7109    5.2784    3.8332 H       1  UNL1        0.0248
      7 C           6.8821    3.5293    1.7857 C.3     1  UNL1       -0.0443
      8 H           6.9598    2.4995    1.4471 H       1  UNL1        0.0248
      9 H           7.7815    3.7922    2.3357 H       1  UNL1        0.0248
     10 H           6.7873    4.1700    0.9096 H       1  UNL1        0.0248
     11 C           5.6257    2.6883    3.8215 C.3     1  UNL1       -0.0443
     12 H           4.7047    2.7966    4.3902 H       1  UNL1        0.0248
     13 H           6.4752    2.8570    4.4777 H       1  UNL1        0.0248
     14 H           5.6795    1.6754    3.4324 H       1  UNL1        0.0248
@<TRIPOS>BOND
     1    10     7    1
     2     8     7    1
     3     7     9    1
     4     7     2    1
     5     1     2    1
     6     4     3    1
     7     2     3    1
     8     2    11    1
     9     3     6    1
    10     3     5    1
    11    14    11    1
    12    11    12    1
    13    11    13    1
