@<TRIPOS>MOLECULE
1
 25 26 0 0 0
SMALL
GASTEIGER

@<TRIPOS>ATOM
      1 N          26.9620    3.8942    3.5704 N.3     1  UNL1       -0.1307
      2 C          25.7789    3.9392    3.5908 C.3     1  UNL1        0.1179
      3 C          24.4314    3.9885    3.5815 C.3     1  UNL1        0.0611
      4 C          23.7876    5.2808    3.7353 C.ar    1  UNL1       -0.0337
      5 C          24.5049    6.4613    3.4961 C.ar    1  UNL1       -0.0576
      6 H          25.5385    6.3989    3.1742 H       1  UNL1        0.0621
      7 C          23.9225    7.6981    3.6734 C.ar    1  UNL1       -0.0615
      8 H          24.5004    8.5925    3.4859 H       1  UNL1        0.0618
      9 C          22.6035    7.7998    4.0857 C.ar    1  UNL1       -0.0617
     10 H          22.1453    8.7690    4.2185 H       1  UNL1        0.0618
     11 C          21.8850    6.6430    4.3415 C.ar    1  UNL1       -0.0615
     12 H          20.8619    6.7103    4.6852 H       1  UNL1        0.0618
     13 C          22.4667    5.4023    4.1799 C.ar    1  UNL1       -0.0576
     14 H          21.9048    4.5142    4.4282 H       1  UNL1        0.0621
     15 C          23.7285    2.7227    3.4128 C.ar    1  UNL1       -0.0337
     16 C          22.5063    2.6383    2.7395 C.ar    1  UNL1       -0.0576
     17 H          22.0494    3.5377    2.3566 H       1  UNL1        0.0621
     18 C          21.8932    1.4182    2.5370 C.ar    1  UNL1       -0.0615
     19 H          20.9491    1.3766    2.0114 H       1  UNL1        0.0618
     20 C          22.4808    0.2485    2.9914 C.ar    1  UNL1       -0.0617
     21 H          21.9967   -0.7038    2.8315 H       1  UNL1        0.0618
     22 C          23.6986    0.3141    3.6507 C.ar    1  UNL1       -0.0615
     23 H          24.1680   -0.5918    4.0097 H       1  UNL1        0.0618
     24 C          24.3140    1.5315    3.8593 C.ar    1  UNL1       -0.0576
     25 H          25.2585    1.5772    4.3852 H       1  UNL1        0.0621
@<TRIPOS>BOND
     1    19    18    1
     2    17    16    1
     3    18    16   ar
     4    18    20   ar
     5    16    15   ar
     6    21    20    1
     7    20    22   ar
     8     6     5    1
     9    15     3    1
    10    15    24   ar
    11     8     7    1
    12     5     7   ar
    13     5     4   ar
    14     1     2    1
    15     3     2    1
    16     3     4    1
    17    22    24   ar
    18    22    23    1
    19     7     9   ar
    20     4    13   ar
    21    24    25    1
    22     9    10    1
    23     9    11   ar
    24    13    11   ar
    25    13    14    1
    26    11    12    1
