@<TRIPOS>MOLECULE
4
 38 39 0 0 0
SMALL
GASTEIGER

@<TRIPOS>ATOM
      1 P           5.2374    6.0216   27.9313 P.3     1  UNL1        0.0000
      2 SI          2.3132    7.1916   28.2253 Si      1  UNL1        0.0000
      3 O           3.6898    6.2278   28.0598 O.3     1  UNL1        0.0000
      4 N           5.6577    5.7106   26.4379 N.3     1  UNL1        0.0000
      5 C           6.2961    2.6034   30.7796 C.ar    1  UNL1        0.0000
      6 H           6.5579    1.7973   31.4478 H       1  UNL1        0.0000
      7 C           5.6211    4.6656   29.0684 C.ar    1  UNL1        0.0000
      8 C           5.9747    7.8299   29.8983 C.ar    1  UNL1        0.0000
      9 H           5.4390    7.1709   30.5671 H       1  UNL1        0.0000
     10 C           6.7558    8.3367   27.6743 C.ar    1  UNL1        0.0000
     11 H           6.8154    8.0688   26.6266 H       1  UNL1        0.0000
     12 C           6.8160    3.9805   28.8864 C.ar    1  UNL1        0.0000
     13 H           7.4692    4.2596   28.0693 H       1  UNL1        0.0000
     14 C           6.5793    8.9805   30.3704 C.ar    1  UNL1        0.0000
     15 H           6.5185    9.2316   31.4184 H       1  UNL1        0.0000
     16 C           6.0562    7.5163   28.5475 C.ar    1  UNL1        0.0000
     17 C           7.2661    9.8103   29.4966 C.ar    1  UNL1        0.0000
     18 H           7.7359   10.7082   29.8675 H       1  UNL1        0.0000
     19 C           7.1501    2.9465   29.7424 C.ar    1  UNL1        0.0000
     20 H           8.0759    2.4100   29.6006 H       1  UNL1        0.0000
     21 C           5.1056    3.2899   30.9599 C.ar    1  UNL1        0.0000
     22 H           4.4423    3.0184   31.7673 H       1  UNL1        0.0000
     23 C           1.2846    6.2147   29.4899 C.3     1  UNL1        0.0000
     24 H           0.2858    6.6308   29.5671 H       1  UNL1        0.0000
     25 H           1.1850    5.1733   29.1931 H       1  UNL1        0.0000
     26 H           1.7179    6.2390   30.4866 H       1  UNL1        0.0000
     27 C           7.3569    9.4884   28.1517 C.ar    1  UNL1        0.0000
     28 H           7.8959   10.1337   27.4748 H       1  UNL1        0.0000
     29 C           4.7633    4.3228   30.1043 C.ar    1  UNL1        0.0000
     30 H           3.8321    4.8557   30.2232 H       1  UNL1        0.0000
     31 C           2.8608    8.9050   28.8466 C.3     1  UNL1        0.0000
     32 H           2.0439    9.6173   28.7884 H       1  UNL1        0.0000
     33 H           3.1855    8.8729   29.8834 H       1  UNL1        0.0000
     34 H           3.6897    9.3002   28.2635 H       1  UNL1        0.0000
     35 C           1.4951    7.2421   26.5111 C.3     1  UNL1        0.0000
     36 H           0.4357    7.4589   26.6040 H       1  UNL1        0.0000
     37 H           1.9228    8.0061   25.8676 H       1  UNL1        0.0000
     38 H           1.5904    6.2830   26.0068 H       1  UNL1        0.0000
@<TRIPOS>BOND
     1    37    35    1
     2    38    35    1
     3     4     1    1
     4    35    36    1
     5    35     2    1
     6    11    10    1
     7    28    27    1
     8    10    27   ar
     9    10    16   ar
    10     1     3    1
    11     1    16    1
    12     1     7    1
    13     3     2    1
    14    13    12    1
    15    27    17   ar
    16     2    31    1
    17     2    23    1
    18    34    31    1
    19    16     8   ar
    20    32    31    1
    21    31    33    1
    22    12     7   ar
    23    12    19   ar
    24     7    29   ar
    25    25    23    1
    26    23    24    1
    27    23    26    1
    28    17    18    1
    29    17    14   ar
    30    20    19    1
    31    19     5   ar
    32     8    14   ar
    33     8     9    1
    34    29    30    1
    35    29    21   ar
    36    14    15    1
    37     5    21   ar
    38     5     6    1
    39    21    22    1
