@<TRIPOS>MOLECULE
4
 16 16 0 0 0
SMALL
GASTEIGER

@<TRIPOS>ATOM
      1 F           9.8363    1.5967   -0.7614 F       1  UNL1       -0.1659
      2 F           8.5067    1.5392   -2.4513 F       1  UNL1       -0.1659
      3 F           9.2681   -0.2909   -1.6197 F       1  UNL1       -0.1659
      4 N           3.4012    0.3860    2.8558 N.3     1  UNL1       -0.1263
      5 C           4.3498    0.4669    2.1819 C.3     1  UNL1        0.1344
      6 C           5.4453    0.6101    1.3350 C.ar    1  UNL1       -0.0198
      7 C           5.2598    0.5663   -0.0573 C.ar    1  UNL1       -0.0560
      8 H           4.2672    0.4298   -0.4572 H       1  UNL1        0.0621
      9 C           6.3434    0.6807   -0.8965 C.ar    1  UNL1       -0.0498
     10 H           6.2089    0.6426   -1.9666 H       1  UNL1        0.0623
     11 C           7.6206    0.8509   -0.3650 C.ar    1  UNL1        0.0548
     12 C           7.8130    0.9024    1.0134 C.ar    1  UNL1       -0.0498
     13 H           8.8072    1.0314    1.4123 H       1  UNL1        0.0623
     14 C           6.7353    0.7877    1.8607 C.ar    1  UNL1       -0.0560
     15 H           6.8758    0.8174    2.9299 H       1  UNL1        0.0621
     16 C           8.7970    0.9308   -1.2886 C.3     1  UNL1        0.4174
@<TRIPOS>BOND
     1     2    16    1
     2    10     9    1
     3     3    16    1
     4    16     1    1
     5    16    11    1
     6     9    11   ar
     7     9     7   ar
     8     8     7    1
     9    11    12   ar
    10     7     6   ar
    11    12    13    1
    12    12    14   ar
    13     6    14   ar
    14     6     5    1
    15    14    15    1
    16     5     4    1
