@<TRIPOS>MOLECULE
1
 30 30 0 0 0
SMALL
GASTEIGER

@<TRIPOS>ATOM
      1 N          -0.7573    2.0274    5.2876 N.pl3   1  UNL1       -0.1288
      2 C          -1.3567    1.5640    4.1929 C.ar    1  UNL1        0.0792
      3 C          -0.6135    1.2348    3.0261 C.ar    1  UNL1       -0.0200
      4 C          -1.2583    0.7250    1.9189 C.ar    1  UNL1       -0.0564
      5 C          -2.6280    0.5158    1.9253 C.ar    1  UNL1       -0.0611
      6 C          -3.3709    0.8505    3.0476 C.ar    1  UNL1       -0.0564
      7 C          -2.7744    1.3835    4.1727 C.ar    1  UNL1       -0.0200
      8 C           0.8737    1.4987    3.0685 C.3     1  UNL1       -0.0196
      9 C           1.1551    2.9236    2.5787 C.3     1  UNL1       -0.0586
     10 C           1.6998    0.4831    2.2834 C.3     1  UNL1       -0.0586
     11 C          -3.5500    1.8192    5.3992 C.3     1  UNL1       -0.0196
     12 C          -3.3525    0.8227    6.5569 C.3     1  UNL1       -0.0586
     13 C          -5.0437    2.0221    5.1453 C.3     1  UNL1       -0.0586
     14 H          -0.6931    0.4780    1.0319 H       1  UNL1        0.0621
     15 H          -3.1180    0.1025    1.0559 H       1  UNL1        0.0618
     16 H          -4.4388    0.6898    3.0255 H       1  UNL1        0.0621
     17 H           1.1616    1.4391    4.1298 H       1  UNL1        0.0344
     18 H           2.2151    3.1607    2.6637 H       1  UNL1        0.0235
     19 H           0.5826    3.6369    3.1699 H       1  UNL1        0.0235
     20 H           0.8594    3.0273    1.5366 H       1  UNL1        0.0235
     21 H           2.7596    0.6247    2.4895 H       1  UNL1        0.0235
     22 H           1.4241   -0.5292    2.5686 H       1  UNL1        0.0235
     23 H           1.5481    0.5977    1.2126 H       1  UNL1        0.0235
     24 H          -3.1162    2.7832    5.7257 H       1  UNL1        0.0344
     25 H          -3.9350    1.1428    7.4269 H       1  UNL1        0.0235
     26 H          -2.2752    0.7720    6.8275 H       1  UNL1        0.0235
     27 H          -3.6884   -0.1717    6.2559 H       1  UNL1        0.0235
     28 H          -5.5058    2.4862    6.0154 H       1  UNL1        0.0235
     29 H          -5.2025    2.6701    4.2872 H       1  UNL1        0.0235
     30 H          -5.5436    1.0725    4.9643 H       1  UNL1        0.0235
@<TRIPOS>BOND
     1    14     4    1
     2    15     5    1
     3    23    10    1
     4    20     9    1
     5     4     5   ar
     6     4     3   ar
     7     5     6   ar
     8    10    21    1
     9    10    22    1
    10    10     8    1
    11     9    18    1
    12     9     8    1
    13     9    19    1
    14    16     6    1
    15     3     8    1
    16     3     2   ar
    17     6     7   ar
    18     8    17    1
    19     7     2   ar
    20     7    11    1
    21     2     1    1
    22    29    13    1
    23    30    13    1
    24    13    11    1
    25    13    28    1
    26    11    24    1
    27    11    12    1
    28    27    12    1
    29    12    26    1
    30    12    25    1
