@<TRIPOS>MOLECULE
1
 14 13 0 0 0
SMALL
GASTEIGER

@<TRIPOS>ATOM
      1 N           2.8824    0.8682    5.1860 N.3     1  UNL1       -0.1371
      2 C           3.0778    0.3067    6.4682 C.3     1  UNL1        0.0466
      3 C           3.4034    1.3944    7.5160 C.3     1  UNL1       -0.0443
      4 C           4.2540   -0.6990    6.4317 C.3     1  UNL1       -0.0443
      5 C           1.8029   -0.4400    6.9258 C.3     1  UNL1       -0.0443
      6 H           3.6007    0.9424    8.4861 H       1  UNL1        0.0248
      7 H           4.2803    1.9566    7.2013 H       1  UNL1        0.0248
      8 H           2.5654    2.0804    7.6074 H       1  UNL1        0.0248
      9 H           4.4145   -1.1406    7.4132 H       1  UNL1        0.0248
     10 H           5.1587   -0.1842    6.1169 H       1  UNL1        0.0248
     11 H           4.0393   -1.4942    5.7183 H       1  UNL1        0.0248
     12 H           1.9460   -0.8786    7.9113 H       1  UNL1        0.0248
     13 H           0.9711    0.2588    6.9589 H       1  UNL1        0.0248
     14 H           1.5633   -1.2322    6.2173 H       1  UNL1        0.0248
@<TRIPOS>BOND
     1     1     2    1
     2    11     4    1
     3    10     4    1
     4    14     5    1
     5     4     2    1
     6     4     9    1
     7     2     5    1
     8     2     3    1
     9     5    13    1
    10     5    12    1
    11     7     3    1
    12     3     8    1
    13     3     6    1
