@<TRIPOS>MOLECULE
1
 12 12 0 0 0
SMALL
GASTEIGER

@<TRIPOS>ATOM
      1 N           4.1969    4.0574    0.1830 N.pl3   1  UNL1       -0.1294
      2 C           3.0684    4.7733    0.0704 C.ar    1  UNL1        0.0724
      3 C           1.9221    4.1716   -0.4816 C.ar    1  UNL1       -0.0372
      4 H           2.0059    3.1365   -0.7957 H       1  UNL1        0.0637
      5 C           0.7505    4.8837   -0.6101 C.ar    1  UNL1       -0.0599
      6 H          -0.1217    4.4085   -1.0360 H       1  UNL1        0.0618
      7 C           0.6821    6.2070   -0.1962 C.ar    1  UNL1       -0.0616
      8 H          -0.2384    6.7614   -0.2988 H       1  UNL1        0.0618
      9 C           1.8025    6.8124    0.3493 C.ar    1  UNL1       -0.0599
     10 H           1.7539    7.8426    0.6727 H       1  UNL1        0.0618
     11 C           2.9839    6.1122    0.4843 C.ar    1  UNL1       -0.0372
     12 H           3.8609    6.5825    0.9095 H       1  UNL1        0.0637
@<TRIPOS>BOND
     1     6     5    1
     2     4     3    1
     3     5     3   ar
     4     5     7   ar
     5     3     2   ar
     6     8     7    1
     7     7     9   ar
     8     2     1    1
     9     2    11   ar
    10     9    11   ar
    11     9    10    1
    12    11    12    1
