@<TRIPOS>MOLECULE
1
 14 13 0 0 0
SMALL
GASTEIGER

@<TRIPOS>ATOM
      1 N           9.7989    4.0817   18.8955 N.3     1  UNL1       -0.1371
      2 C          10.7683    4.3342   19.8956 C.3     1  UNL1        0.0466
      3 C          11.1859    2.9968   20.5413 C.3     1  UNL1       -0.0443
      4 C          12.0039    5.0329   19.3000 C.3     1  UNL1       -0.0443
      5 C          10.1479    5.2526   20.9683 C.3     1  UNL1       -0.0443
      6 H          11.8123    3.1688   21.4132 H       1  UNL1        0.0248
      7 H          10.2950    2.4438   20.8333 H       1  UNL1        0.0248
      8 H          11.7356    2.3947   19.8228 H       1  UNL1        0.0248
      9 H          12.7585    5.1833   20.0684 H       1  UNL1        0.0248
     10 H          11.7130    5.9965   18.8908 H       1  UNL1        0.0248
     11 H          12.4166    4.4264   18.5008 H       1  UNL1        0.0248
     12 H          10.8801    5.4936   21.7352 H       1  UNL1        0.0248
     13 H           9.2992    4.7537   21.4287 H       1  UNL1        0.0248
     14 H           9.8013    6.1701   20.4978 H       1  UNL1        0.0248
@<TRIPOS>BOND
     1    11     4    1
     2    10     4    1
     3     1     2    1
     4     4     2    1
     5     4     9    1
     6     8     3    1
     7     2     3    1
     8     2     5    1
     9    14     5    1
    10     3     7    1
    11     3     6    1
    12     5    13    1
    13     5    12    1
