@<TRIPOS>MOLECULE
1
 30 30 0 0 0
SMALL
GASTEIGER

@<TRIPOS>ATOM
      1 N           4.0719    2.5530    4.0611 N.pl3   1  UNL1       -0.1288
      2 C           5.3210    2.9545    4.3368 C.ar    1  UNL1        0.0792
      3 C           5.9933    2.4831    5.4970 C.ar    1  UNL1       -0.0200
      4 C           7.3047    2.8531    5.7265 C.ar    1  UNL1       -0.0564
      5 C           7.9721    3.7096    4.8673 C.ar    1  UNL1       -0.0611
      6 C           7.3109    4.2171    3.7636 C.ar    1  UNL1       -0.0564
      7 C           6.0065    3.8560    3.4807 C.ar    1  UNL1       -0.0200
      8 C           5.2573    1.5610    6.4409 C.3     1  UNL1       -0.0196
      9 C           5.2755    4.4553    2.3032 C.3     1  UNL1       -0.0196
     10 C           5.4960    0.1066    6.0240 C.3     1  UNL1       -0.0586
     11 C           5.6418    1.7678    7.9066 C.3     1  UNL1       -0.0586
     12 C           6.0810    4.3947    1.0060 C.3     1  UNL1       -0.0586
     13 C           4.8979    5.9036    2.6246 C.3     1  UNL1       -0.0586
     14 H           7.8242    2.4755    6.5943 H       1  UNL1        0.0621
     15 H           8.9967    3.9891    5.0649 H       1  UNL1        0.0618
     16 H           7.8273    4.9079    3.1134 H       1  UNL1        0.0621
     17 H           4.1889    1.7716    6.3312 H       1  UNL1        0.0344
     18 H           4.3484    3.8857    2.1695 H       1  UNL1        0.0344
     19 H           5.0093   -0.5730    6.7222 H       1  UNL1        0.0235
     20 H           6.5617   -0.1165    6.0108 H       1  UNL1        0.0235
     21 H           5.0882   -0.0518    5.0283 H       1  UNL1        0.0235
     22 H           4.9421    1.2370    8.5492 H       1  UNL1        0.0235
     23 H           6.6392    1.3867    8.1135 H       1  UNL1        0.0235
     24 H           5.6135    2.8234    8.1648 H       1  UNL1        0.0235
     25 H           5.4760    4.7701    0.1826 H       1  UNL1        0.0235
     26 H           6.9754    5.0094    1.0696 H       1  UNL1        0.0235
     27 H           6.3816    3.3725    0.7890 H       1  UNL1        0.0235
     28 H           4.2839    6.3232    1.8306 H       1  UNL1        0.0235
     29 H           5.7902    6.5150    2.7427 H       1  UNL1        0.0235
     30 H           4.3336    5.9344    3.5528 H       1  UNL1        0.0235
@<TRIPOS>BOND
     1    25    12    1
     2    27    12    1
     3    12    26    1
     4    12     9    1
     5    28    13    1
     6    18     9    1
     7     9    13    1
     8     9     7    1
     9    13    29    1
    10    13    30    1
    11    16     6    1
    12     7     6   ar
    13     7     2   ar
    14     6     5   ar
    15     1     2    1
    16     2     3   ar
    17     5    15    1
    18     5     4   ar
    19    21    10    1
    20     3     4   ar
    21     3     8    1
    22     4    14    1
    23    20    10    1
    24    10     8    1
    25    10    19    1
    26    17     8    1
    27     8    11    1
    28    11    23    1
    29    11    24    1
    30    11    22    1
