@<TRIPOS>MOLECULE
1
 14 13 0 0 0
SMALL
GASTEIGER

@<TRIPOS>ATOM
      1 N           6.3246    1.0643    5.6131 N.3     1  UNL1       -0.1371
      2 C           6.5696   -0.0911    6.4104 C.3     1  UNL1        0.0466
      3 C           7.5294   -1.0735    5.7085 C.3     1  UNL1       -0.0443
      4 C           7.2151    0.3216    7.7499 C.3     1  UNL1       -0.0443
      5 C           5.2405   -0.8277    6.6760 C.3     1  UNL1       -0.0443
      6 H           7.7238   -1.9257    6.3554 H       1  UNL1        0.0248
      7 H           8.4692   -0.5786    5.4845 H       1  UNL1        0.0248
      8 H           7.0915   -1.4351    4.7824 H       1  UNL1        0.0248
      9 H           7.4452   -0.5593    8.3442 H       1  UNL1        0.0248
     10 H           8.1315    0.8718    7.5542 H       1  UNL1        0.0248
     11 H           6.5411    0.9595    8.3116 H       1  UNL1        0.0248
     12 H           5.4138   -1.7175    7.2765 H       1  UNL1        0.0248
     13 H           4.5484   -0.1755    7.2034 H       1  UNL1        0.0248
     14 H           4.7942   -1.1139    5.7267 H       1  UNL1        0.0248
@<TRIPOS>BOND
     1     8     3    1
     2     7     3    1
     3     1     2    1
     4     3     6    1
     5     3     2    1
     6    14     5    1
     7     2     5    1
     8     2     4    1
     9     5    13    1
    10     5    12    1
    11    10     4    1
    12     4    11    1
    13     4     9    1
