@<TRIPOS>MOLECULE
2
 14 13 0 0 0
SMALL
GASTEIGER

@<TRIPOS>ATOM
      1 SI          2.7503    2.6070    0.3351 Si      1  UNL1        0.0000
      2 N           2.2066    3.2148    1.8407 N.3     1  UNL1        0.0000
      3 C           1.9833    3.5920   -1.1174 C.3     1  UNL1        0.0000
      4 H           0.9001    3.5281   -1.1141 H       1  UNL1        0.0000
      5 H           2.3351    3.2033   -2.0671 H       1  UNL1        0.0000
      6 H           2.2492    4.6430   -1.0704 H       1  UNL1        0.0000
      7 C           4.6609    2.7504    0.2647 C.3     1  UNL1        0.0000
      8 H           4.9824    3.7123   -0.1219 H       1  UNL1        0.0000
      9 H           5.0888    1.9817   -0.3704 H       1  UNL1        0.0000
     10 H           5.0819    2.6349    1.2587 H       1  UNL1        0.0000
     11 C           2.2449    0.7633    0.1927 C.3     1  UNL1        0.0000
     12 H           1.2483    0.6458   -0.2209 H       1  UNL1        0.0000
     13 H           2.2547    0.2956    1.1723 H       1  UNL1        0.0000
     14 H           2.9317    0.2166   -0.4451 H       1  UNL1        0.0000
@<TRIPOS>BOND
     1     5     3    1
     2     3     4    1
     3     3     6    1
     4     3     1    1
     5    14    11    1
     6     9     7    1
     7    12    11    1
     8     8     7    1
     9    11     1    1
    10    11    13    1
    11     7     1    1
    12     7    10    1
    13     1     2    1
