@<TRIPOS>MOLECULE
2
 14 13 0 0 0
SMALL
GASTEIGER

@<TRIPOS>ATOM
      1 SI         22.2878   14.2078    2.0961 Si      1  UNL1        0.0000
      2 N          20.9276   13.7858    1.1209 N.3     1  UNL1        0.0000
      3 C          23.3622   15.4635    1.1317 C.3     1  UNL1        0.0000
      4 H          22.8026   16.3669    0.9132 H       1  UNL1        0.0000
      5 H          23.6940   15.0453    0.1871 H       1  UNL1        0.0000
      6 H          24.2426   15.7454    1.6998 H       1  UNL1        0.0000
      7 C          23.2851   12.6146    2.4555 C.3     1  UNL1        0.0000
      8 H          22.6745   11.8840    2.9756 H       1  UNL1        0.0000
      9 H          24.1531   12.8242    3.0719 H       1  UNL1        0.0000
     10 H          23.6321   12.1577    1.5347 H       1  UNL1        0.0000
     11 C          21.6600   14.9834    3.7285 C.3     1  UNL1        0.0000
     12 H          21.0034   14.2996    4.2561 H       1  UNL1        0.0000
     13 H          21.1019   15.8939    3.5371 H       1  UNL1        0.0000
     14 H          22.4851   15.2304    4.3884 H       1  UNL1        0.0000
@<TRIPOS>BOND
     1     5     3    1
     2     4     3    1
     3     2     1    1
     4     3     6    1
     5     3     1    1
     6    10     7    1
     7     1     7    1
     8     1    11    1
     9     7     8    1
    10     7     9    1
    11    13    11    1
    12    11    12    1
    13    11    14    1
