@<TRIPOS>MOLECULE
1
 24 25 0 0 0
SMALL
GASTEIGER

@<TRIPOS>ATOM
      1 N           4.7129    1.1510    3.5928 N.3     1  UNL1       -0.0117
      2 N           5.3749    0.7917    2.4891 N.pl3   1  UNL1       -0.2010
      3 C           5.9479   -0.4748    2.3887 C.ar    1  UNL1        0.0530
      4 C           5.4959   -1.4940    3.2325 C.ar    1  UNL1       -0.0389
      5 C           6.0581   -2.7523    3.1724 C.ar    1  UNL1       -0.0600
      6 C           7.0786   -3.0249    2.2754 C.ar    1  UNL1       -0.0616
      7 C           7.5478   -2.0114    1.4543 C.ar    1  UNL1       -0.0600
      8 C           6.9999   -0.7454    1.5087 C.ar    1  UNL1       -0.0389
      9 C           5.5107    1.7630    1.4832 C.ar    1  UNL1        0.0530
     10 C           5.3940    1.4281    0.1325 C.ar    1  UNL1       -0.0389
     11 C           5.4785    2.4122   -0.8332 C.ar    1  UNL1       -0.0600
     12 C           5.6661    3.7378   -0.4736 C.ar    1  UNL1       -0.0616
     13 C           5.7648    4.0756    0.8670 C.ar    1  UNL1       -0.0600
     14 C           5.6845    3.1014    1.8433 C.ar    1  UNL1       -0.0389
     15 H           4.7151   -1.2631    3.9408 H       1  UNL1        0.0637
     16 H           5.6975   -3.5281    3.8319 H       1  UNL1        0.0618
     17 H           7.5143   -4.0111    2.2260 H       1  UNL1        0.0618
     18 H           8.3612   -2.2062    0.7704 H       1  UNL1        0.0618
     19 H           7.4007    0.0407    0.8879 H       1  UNL1        0.0637
     20 H           5.2268    0.4000   -0.1522 H       1  UNL1        0.0637
     21 H           5.3867    2.1440   -1.8756 H       1  UNL1        0.0618
     22 H           5.7312    4.5013   -1.2339 H       1  UNL1        0.0618
     23 H           5.9115    5.1059    1.1547 H       1  UNL1        0.0618
     24 H           5.7698    3.3541    2.8925 H       1  UNL1        0.0637
@<TRIPOS>BOND
     1    21    11    1
     2    22    12    1
     3    11    12   ar
     4    11    10   ar
     5    12    13   ar
     6    20    10    1
     7    10     9   ar
     8    18     7    1
     9    13    23    1
    10    13    14   ar
    11    19     8    1
    12     7     8   ar
    13     7     6   ar
    14     9    14   ar
    15     9     2    1
    16     8     3   ar
    17    14    24    1
    18    17     6    1
    19     6     5   ar
    20     3     2    1
    21     3     4   ar
    22     2     1    1
    23     5     4   ar
    24     5    16    1
    25     4    15    1
