@<TRIPOS>MOLECULE
1
 24 25 0 0 0
SMALL
GASTEIGER

@<TRIPOS>ATOM
      1 N          12.7641    3.3885   13.6273 N.3     1  UNL1       -0.0117
      2 N          13.9397    3.9846   13.4903 N.pl3   1  UNL1       -0.2010
      3 C          14.8609    3.8823   14.5387 C.ar    1  UNL1        0.0530
      4 C          14.3874    3.7442   15.8455 C.ar    1  UNL1       -0.0389
      5 C          15.2770    3.6041   16.8922 C.ar    1  UNL1       -0.0600
      6 C          16.6434    3.5920   16.6593 C.ar    1  UNL1       -0.0616
      7 C          17.1146    3.7047   15.3607 C.ar    1  UNL1       -0.0600
      8 C          16.2367    3.8424   14.3032 C.ar    1  UNL1       -0.0389
      9 C          14.2009    4.6963   12.3155 C.ar    1  UNL1        0.0530
     10 C          13.5133    4.3584   11.1463 C.ar    1  UNL1       -0.0389
     11 C          13.7280    5.0689    9.9825 C.ar    1  UNL1       -0.0600
     12 C          14.6206    6.1288    9.9596 C.ar    1  UNL1       -0.0616
     13 C          15.2855    6.4836   11.1229 C.ar    1  UNL1       -0.0600
     14 C          15.0775    5.7839   12.2950 C.ar    1  UNL1       -0.0389
     15 H          13.3189    3.7498   16.0085 H       1  UNL1        0.0637
     16 H          14.9025    3.5068   17.9006 H       1  UNL1        0.0618
     17 H          17.3361    3.4869   17.4806 H       1  UNL1        0.0618
     18 H          18.1774    3.6741   15.1685 H       1  UNL1        0.0618
     19 H          16.6115    3.9008   13.2928 H       1  UNL1        0.0637
     20 H          12.8142    3.5325   11.1734 H       1  UNL1        0.0637
     21 H          13.1953    4.7928    9.0844 H       1  UNL1        0.0618
     22 H          14.7886    6.6805    9.0472 H       1  UNL1        0.0618
     23 H          15.9652    7.3234   11.1198 H       1  UNL1        0.0618
     24 H          15.5762    6.0889   13.2019 H       1  UNL1        0.0637
@<TRIPOS>BOND
     1    22    12    1
     2    21    11    1
     3    12    11   ar
     4    12    13   ar
     5    11    10   ar
     6    23    13    1
     7    13    14   ar
     8    10    20    1
     9    10     9   ar
    10    14     9   ar
    11    14    24    1
    12     9     2    1
    13    19     8    1
    14     2     1    1
    15     2     3    1
    16     8     3   ar
    17     8     7   ar
    18     3     4   ar
    19    18     7    1
    20     7     6   ar
    21     4    15    1
    22     4     5   ar
    23     6     5   ar
    24     6    17    1
    25     5    16    1
