@<TRIPOS>MOLECULE
1
 14 13 0 0 0
SMALL
GASTEIGER

@<TRIPOS>ATOM
      1 N           8.2555   12.3449    5.0555 N.3     1  UNL1       -0.1371
      2 C           8.2693   12.9201    6.3360 C.3     1  UNL1        0.0466
      3 C           7.8652   14.4011    6.2249 C.3     1  UNL1       -0.0443
      4 C           9.6915   12.7897    6.9146 C.3     1  UNL1       -0.0443
      5 C           7.2723   12.1532    7.2259 C.3     1  UNL1       -0.0443
      6 H           7.8686   14.8735    7.2039 H       1  UNL1        0.0248
      7 H           8.5658   14.9152    5.5699 H       1  UNL1        0.0248
      8 H           6.8694   14.4687    5.7914 H       1  UNL1        0.0248
      9 H           9.7201   13.1351    7.9446 H       1  UNL1        0.0248
     10 H          10.3857   13.3759    6.3180 H       1  UNL1        0.0248
     11 H           9.9949   11.7445    6.8722 H       1  UNL1        0.0248
     12 H           7.3218   12.5080    8.2519 H       1  UNL1        0.0248
     13 H           7.5157   11.0920    7.1950 H       1  UNL1        0.0248
     14 H           6.2626   12.2877    6.8459 H       1  UNL1        0.0248
@<TRIPOS>BOND
     1     1     2    1
     2     7     3    1
     3     8     3    1
     4     3     2    1
     5     3     6    1
     6    10     4    1
     7     2     4    1
     8     2     5    1
     9    14     5    1
    10    11     4    1
    11     4     9    1
    12    13     5    1
    13     5    12    1
