@<TRIPOS>MOLECULE
1
 12 12 0 0 0
SMALL
GASTEIGER

@<TRIPOS>ATOM
      1 N          -2.1284   -2.1167    4.5944 N.pl3   1  UNL1       -0.1294
      2 C          -2.1850   -1.1495    5.5052 C.ar    1  UNL1        0.0724
      3 C          -1.2128   -0.1293    5.5661 C.ar    1  UNL1       -0.0372
      4 H          -0.3904   -0.1544    4.8684 H       1  UNL1        0.0637
      5 C          -1.3395    0.8894    6.4835 C.ar    1  UNL1       -0.0599
      6 H          -0.5954    1.6702    6.5200 H       1  UNL1        0.0618
      7 C          -2.4166    0.9196    7.3598 C.ar    1  UNL1       -0.0616
      8 H          -2.5056    1.7213    8.0759 H       1  UNL1        0.0618
      9 C          -3.3798   -0.0800    7.3131 C.ar    1  UNL1       -0.0599
     10 H          -4.2181   -0.0523    7.9921 H       1  UNL1        0.0618
     11 C          -3.2741   -1.1077    6.4038 C.ar    1  UNL1       -0.0372
     12 H          -4.0187   -1.8858    6.3361 H       1  UNL1        0.0637
@<TRIPOS>BOND
     1     1     2    1
     2     4     3    1
     3     2     3   ar
     4     2    11   ar
     5     3     5   ar
     6    12    11    1
     7    11     9   ar
     8     5     6    1
     9     5     7   ar
    10     9     7   ar
    11     9    10    1
    12     7     8    1
