@<TRIPOS>MOLECULE
1
 14 13 0 0 0
SMALL
GASTEIGER

@<TRIPOS>ATOM
      1 N           7.0579   11.1369    6.5723 N.3     1  UNL1       -0.1371
      2 C           7.4074   10.0871    5.7032 C.3     1  UNL1        0.0466
      3 C           8.7314    9.4671    6.1902 C.3     1  UNL1       -0.0443
      4 H           9.5302   10.2017    6.1302 H       1  UNL1        0.0248
      5 H           8.9899    8.6089    5.5756 H       1  UNL1        0.0248
      6 H           8.6221    9.1444    7.2238 H       1  UNL1        0.0248
      7 C           6.3128    9.0015    5.7524 C.3     1  UNL1       -0.0443
      8 H           6.2588    8.5675    6.7488 H       1  UNL1        0.0248
      9 H           6.5450    8.2168    5.0377 H       1  UNL1        0.0248
     10 H           5.3443    9.4287    5.5010 H       1  UNL1        0.0248
     11 C           7.5716   10.5697    4.2498 C.3     1  UNL1       -0.0443
     12 H           6.6014   10.7418    3.7934 H       1  UNL1        0.0248
     13 H           8.0968    9.8167    3.6685 H       1  UNL1        0.0248
     14 H           8.1385   11.4959    4.2262 H       1  UNL1        0.0248
@<TRIPOS>BOND
     1    13    11    1
     2    12    11    1
     3    14    11    1
     4    11     2    1
     5     9     7    1
     6    10     7    1
     7     5     3    1
     8     2     7    1
     9     2     3    1
    10     2     1    1
    11     7     8    1
    12     4     3    1
    13     3     6    1
