@<TRIPOS>MOLECULE
1
 14 13 0 0 0
SMALL
GASTEIGER

@<TRIPOS>ATOM
      1 N           0.2588    1.6950    4.7948 N.3     1  UNL1       -0.1371
      2 C           0.9929    0.7556    5.5516 C.3     1  UNL1        0.0466
      3 C           1.2876   -0.5083    4.7067 C.3     1  UNL1       -0.0443
      4 H           1.9787   -0.2646    3.9019 H       1  UNL1        0.0248
      5 H           0.3616   -0.8804    4.2727 H       1  UNL1        0.0248
      6 H           1.7304   -1.2845    5.3276 H       1  UNL1        0.0248
      7 C           0.1856    0.3266    6.7992 C.3     1  UNL1       -0.0443
      8 H          -0.7462   -0.1380    6.4860 H       1  UNL1        0.0248
      9 H          -0.0461    1.2017    7.4043 H       1  UNL1        0.0248
     10 H           0.7555   -0.3769    7.4030 H       1  UNL1        0.0248
     11 C           2.3511    1.3333    6.0199 C.3     1  UNL1       -0.0443
     12 H           2.8942    1.7224    5.1605 H       1  UNL1        0.0248
     13 H           2.9476    0.5605    6.5010 H       1  UNL1        0.0248
     14 H           2.1918    2.1433    6.7277 H       1  UNL1        0.0248
@<TRIPOS>BOND
     1     4     3    1
     2     5     3    1
     3     3     6    1
     4     3     2    1
     5     1     2    1
     6    12    11    1
     7     2    11    1
     8     2     7    1
     9    11    13    1
    10    11    14    1
    11     8     7    1
    12     7    10    1
    13     7     9    1
