@<TRIPOS>MOLECULE
1
 13 13 0 0 0
SMALL
GASTEIGER

@<TRIPOS>ATOM
      1 N           3.3087    6.3219   13.3443 N.3     1  UNL1       -0.1263
      2 C           4.0293    5.4553   13.0885 C.3     1  UNL1        0.1344
      3 C           4.9179    4.4295   12.7470 C.ar    1  UNL1       -0.0199
      4 C           4.6656    3.6424   11.6168 C.ar    1  UNL1       -0.0566
      5 H           3.7931    3.8426   11.0137 H       1  UNL1        0.0621
      6 C           5.5356    2.6217   11.2910 C.ar    1  UNL1       -0.0614
      7 H           5.3440    2.0128   10.4205 H       1  UNL1        0.0618
      8 C           6.6520    2.3760   12.0774 C.ar    1  UNL1       -0.0617
      9 H           7.3275    1.5753   11.8171 H       1  UNL1        0.0618
     10 C           6.9029    3.1557   13.1977 C.ar    1  UNL1       -0.0614
     11 H           7.7729    2.9606   13.8063 H       1  UNL1        0.0618
     12 C           6.0449    4.1811   13.5397 C.ar    1  UNL1       -0.0566
     13 H           6.2265    4.7927   14.4094 H       1  UNL1        0.0621
@<TRIPOS>BOND
     1     7     6    1
     2     5     4    1
     3     6     4   ar
     4     6     8   ar
     5     4     3   ar
     6     9     8    1
     7     8    10   ar
     8     3     2    1
     9     3    12   ar
    10     2     1    1
    11    10    12   ar
    12    10    11    1
    13    12    13    1
