@<TRIPOS>MOLECULE
1
 13 13 0 0 0
SMALL
GASTEIGER

@<TRIPOS>ATOM
      1 N           8.7949    7.1464    7.3862 N.3     1  UNL1       -0.1263
      2 C           8.0552    7.9718    7.7050 C.3     1  UNL1        0.1344
      3 C           7.1551    8.9770    8.0849 C.ar    1  UNL1       -0.0199
      4 C           6.7360    9.9167    7.1360 C.ar    1  UNL1       -0.0566
      5 H           7.1141    9.8528    6.1276 H       1  UNL1        0.0621
      6 C           5.3754   10.9664    8.8126 C.ar    1  UNL1       -0.0617
      7 H           4.6810   11.7424    9.0967 H       1  UNL1        0.0618
      8 C           5.8479   10.9052    7.5093 C.ar    1  UNL1       -0.0614
      9 H           5.5211   11.6331    6.7823 H       1  UNL1        0.0618
     10 C           5.7914   10.0346    9.7526 C.ar    1  UNL1       -0.0614
     11 H           5.4207   10.0867   10.7650 H       1  UNL1        0.0618
     12 C           6.6792    9.0383    9.3991 C.ar    1  UNL1       -0.0566
     13 H           7.0103    8.3074   10.1210 H       1  UNL1        0.0621
@<TRIPOS>BOND
     1     5     4    1
     2     9     8    1
     3     4     8   ar
     4     4     3   ar
     5     1     2    1
     6     8     6   ar
     7     2     3    1
     8     3    12   ar
     9     6     7    1
    10     6    10   ar
    11    12    10   ar
    12    12    13    1
    13    10    11    1
