@<TRIPOS>MOLECULE
2
 33 32 0 0 0
SMALL
GASTEIGER

@<TRIPOS>ATOM
      1 SI          6.9315    2.3007    3.7132 Si      1  UNL1        0.0000
      2 N           8.4960    4.2851    4.9076 N.3     1  UNL1        0.0000
      3 N           8.0367    3.2070    4.6657 N.3     1  UNL1        0.0000
      4 C           4.4751    3.6623    4.2802 C.3     1  UNL1        0.0000
      5 H           3.7754    4.4597    4.0327 H       1  UNL1        0.0000
      6 H           4.9371    3.9023    5.2352 H       1  UNL1        0.0000
      7 H           3.9060    2.7439    4.4006 H       1  UNL1        0.0000
      8 C           5.5259    3.5106    3.1818 C.3     1  UNL1        0.0000
      9 H           6.0012    4.4894    3.0528 H       1  UNL1        0.0000
     10 C           6.2741    0.9751    4.9411 C.3     1  UNL1        0.0000
     11 H           5.7709    1.5242    5.7448 H       1  UNL1        0.0000
     12 C           7.9512    1.6570    2.2075 C.3     1  UNL1        0.0000
     13 H           8.0623    2.5023    1.5173 H       1  UNL1        0.0000
     14 C           4.8471    3.1623    1.8605 C.3     1  UNL1        0.0000
     15 H           4.0976    3.9137    1.6116 H       1  UNL1        0.0000
     16 H           4.3448    2.1991    1.9234 H       1  UNL1        0.0000
     17 H           5.5698    3.1246    1.0491 H       1  UNL1        0.0000
     18 C           7.3961    0.1683    5.5898 C.3     1  UNL1        0.0000
     19 H           6.9980   -0.4847    6.3667 H       1  UNL1        0.0000
     20 H           8.1302    0.8322    6.0377 H       1  UNL1        0.0000
     21 H           7.8981   -0.4566    4.8546 H       1  UNL1        0.0000
     22 C           9.3573    1.2234    2.6196 C.3     1  UNL1        0.0000
     23 H           9.9508    0.9557    1.7461 H       1  UNL1        0.0000
     24 H           9.3184    0.3540    3.2706 H       1  UNL1        0.0000
     25 H           9.8764    2.0173    3.1486 H       1  UNL1        0.0000
     26 C           5.2470    0.0264    4.3284 C.3     1  UNL1        0.0000
     27 H           4.8169   -0.6159    5.0970 H       1  UNL1        0.0000
     28 H           5.7062   -0.6128    3.5794 H       1  UNL1        0.0000
     29 H           4.4356    0.5731    3.8552 H       1  UNL1        0.0000
     30 C           7.2880    0.5181    1.4366 C.3     1  UNL1        0.0000
     31 H           7.8460    0.3041    0.5251 H       1  UNL1        0.0000
     32 H           6.2661    0.7606    1.1600 H       1  UNL1        0.0000
     33 H           7.2771   -0.3889    2.0362 H       1  UNL1        0.0000
@<TRIPOS>BOND
     1    31    30    1
     2    17    14    1
     3    32    30    1
     4    30    33    1
     5    30    12    1
     6    13    12    1
     7    15    14    1
     8    23    22    1
     9    14    16    1
    10    14     8    1
    11    12    22    1
    12    12     1    1
    13    22    25    1
    14    22    24    1
    15     9     8    1
    16     8     1    1
    17     8     4    1
    18    28    26    1
    19     1     3    1
    20     1    10    1
    21    29    26    1
    22     5     4    1
    23     4     7    1
    24     4     6    1
    25    26    10    1
    26    26    27    1
    27     3     2    1
    28    21    18    1
    29    10    18    1
    30    10    11    1
    31    18    20    1
    32    18    19    1
