@<TRIPOS>MOLECULE
1
 18 18 0 0 0
SMALL
GASTEIGER

@<TRIPOS>ATOM
      1 N           3.2651    6.4776    8.6227 N.pl3   1  UNL1       -0.1288
      2 C           3.9378    5.3315    8.7554 C.ar    1  UNL1        0.0782
      3 C           4.1836    4.7952   10.0485 C.ar    1  UNL1       -0.0257
      4 C           4.8275    3.5797   10.1838 C.ar    1  UNL1       -0.0570
      5 C           5.2495    2.8664    9.0747 C.ar    1  UNL1       -0.0611
      6 C           5.0335    3.3858    7.8093 C.ar    1  UNL1       -0.0570
      7 C           4.3942    4.5983    7.6260 C.ar    1  UNL1       -0.0257
      8 C           3.7460    5.5525   11.2706 C.3     1  UNL1       -0.0378
      9 C           4.1912    5.1325    6.2382 C.3     1  UNL1       -0.0378
     10 H           5.0030    3.1858   11.1761 H       1  UNL1        0.0621
     11 H           5.7490    1.9166    9.1964 H       1  UNL1        0.0618
     12 H           5.3716    2.8369    6.9405 H       1  UNL1        0.0621
     13 H           3.2986    6.5031   10.9749 H       1  UNL1        0.0278
     14 H           3.0192    4.9762   11.8455 H       1  UNL1        0.0278
     15 H           4.6004    5.7475   11.9189 H       1  UNL1        0.0278
     16 H           3.6123    4.4303    5.6364 H       1  UNL1        0.0278
     17 H           3.6772    6.0938    6.2752 H       1  UNL1        0.0278
     18 H           5.1542    5.2712    5.7481 H       1  UNL1        0.0278
@<TRIPOS>BOND
     1    16     9    1
     2    18     9    1
     3     9    17    1
     4     9     7    1
     5    12     6    1
     6     7     6   ar
     7     7     2   ar
     8     6     5   ar
     9     1     2    1
    10     2     3   ar
    11     5    11    1
    12     5     4   ar
    13     3     4   ar
    14     3     8    1
    15     4    10    1
    16    13     8    1
    17     8    14    1
    18     8    15    1
