@<TRIPOS>MOLECULE
2
 28 28 0 0 0
SMALL
GASTEIGER

@<TRIPOS>ATOM
      1 SI          5.4406    9.4575    5.7319 Si      1  UNL1        0.0000
      2 N           2.6014    8.4518    6.7503 N.pl3   1  UNL1        0.0000
      3 C           2.8038    8.4594    5.4450 C.2     1  UNL1        0.0000
      4 C           3.9528    8.8136    4.8022 C.2     1  UNL1        0.0000
      5 C           6.1883    8.1280    6.8877 C.3     1  UNL1        0.0000
      6 C           6.7722   10.0016    4.4751 C.3     1  UNL1        0.0000
      7 C           4.9221   10.9803    6.7747 C.3     1  UNL1        0.0000
      8 C           1.6168    8.0327    4.6478 C.ar    1  UNL1        0.0000
      9 C           1.7257    7.0343    3.6845 C.ar    1  UNL1        0.0000
     10 C           0.6123    6.6294    2.9697 C.ar    1  UNL1        0.0000
     11 C          -0.6193    7.2200    3.2012 C.ar    1  UNL1        0.0000
     12 C          -0.7340    8.2189    4.1544 C.ar    1  UNL1        0.0000
     13 C           0.3751    8.6172    4.8798 C.ar    1  UNL1        0.0000
     14 H           3.9408    8.7717    3.7213 H       1  UNL1        0.0000
     15 H           6.9538    8.5378    7.5408 H       1  UNL1        0.0000
     16 H           5.4028    7.6974    7.5108 H       1  UNL1        0.0000
     17 H           6.6452    7.3224    6.3202 H       1  UNL1        0.0000
     18 H           7.0951    9.1694    3.8589 H       1  UNL1        0.0000
     19 H           6.4011   10.7762    3.8126 H       1  UNL1        0.0000
     20 H           7.6482   10.3936    4.9804 H       1  UNL1        0.0000
     21 H           4.6487   11.8196    6.1411 H       1  UNL1        0.0000
     22 H           4.0498   10.7182    7.3725 H       1  UNL1        0.0000
     23 H           5.7087   11.3160    7.4444 H       1  UNL1        0.0000
     24 H           2.6867    6.5739    3.5068 H       1  UNL1        0.0000
     25 H           0.7041    5.8495    2.2271 H       1  UNL1        0.0000
     26 H          -1.4864    6.9060    2.6383 H       1  UNL1        0.0000
     27 H          -1.6921    8.6906    4.3274 H       1  UNL1        0.0000
     28 H           0.2956    9.4022    5.6220 H       1  UNL1        0.0000
@<TRIPOS>BOND
     1    25    10    1
     2    26    11    1
     3    10    11   ar
     4    10     9   ar
     5    11    12   ar
     6    24     9    1
     7     9     8   ar
     8    14     4    1
     9    19     6    1
    10    18     6    1
    11    12    27    1
    12    12    13   ar
    13     6    20    1
    14     6     1    1
    15     8    13   ar
    16     8     3    1
    17     4     3    2
    18     4     1    1
    19    13    28    1
    20     3     2    1
    21     1     7    1
    22     1     5    1
    23    21     7    1
    24    17     5    1
    25     7    22    1
    26     7    23    1
    27     5    16    1
    28     5    15    1
