@<TRIPOS>MOLECULE
1
 28 27 0 0 0
SMALL
GASTEIGER

@<TRIPOS>ATOM
      1 N           2.6567    9.0246    9.5166 N.3     1  UNL1       -0.1331
      2 C           2.8049    9.6456   10.5861 C.3     1  UNL1        0.0866
      3 C           1.5294    9.9369   11.4194 C.3     1  UNL1       -0.0141
      4 C           1.3907    8.8583   12.5045 C.3     1  UNL1       -0.0582
      5 C           0.3099    9.8214   10.4906 C.3     1  UNL1       -0.0582
      6 C           1.4778   11.3306   12.0495 C.3     1  UNL1       -0.0582
      7 C           4.2183   10.0816   11.0263 C.3     1  UNL1       -0.0141
      8 C           5.2380    9.2818   10.2025 C.3     1  UNL1       -0.0582
      9 C           4.5227    9.8151   12.5036 C.3     1  UNL1       -0.0582
     10 C           4.4211   11.5694   10.7011 C.3     1  UNL1       -0.0582
     11 H           0.4011    8.9157   12.9567 H       1  UNL1        0.0235
     12 H           1.5143    7.8677   12.0678 H       1  UNL1        0.0235
     13 H           2.1268    8.9804   13.2920 H       1  UNL1        0.0235
     14 H          -0.6029   10.0449   11.0415 H       1  UNL1        0.0235
     15 H           0.3956   10.5202    9.6584 H       1  UNL1        0.0235
     16 H           0.2337    8.8100   10.0868 H       1  UNL1        0.0235
     17 H           0.5243   11.4524   12.5633 H       1  UNL1        0.0235
     18 H           2.2635   11.4884   12.7805 H       1  UNL1        0.0235
     19 H           1.5472   12.0987   11.2830 H       1  UNL1        0.0235
     20 H           5.1079    9.4802    9.1416 H       1  UNL1        0.0235
     21 H           6.2490    9.5605   10.4939 H       1  UNL1        0.0235
     22 H           5.1114    8.2113   10.3620 H       1  UNL1        0.0235
     23 H           4.4007    8.7586   12.7318 H       1  UNL1        0.0235
     24 H           5.5596   10.0834   12.7014 H       1  UNL1        0.0235
     25 H           3.9022   10.3977   13.1774 H       1  UNL1        0.0235
     26 H           3.8776   12.2167   11.3818 H       1  UNL1        0.0235
     27 H           5.4788   11.8149   10.7781 H       1  UNL1        0.0235
     28 H           4.0967   11.7781    9.6839 H       1  UNL1        0.0235
@<TRIPOS>BOND
     1    20     8    1
     2     1     2    1
     3    15     5    1
     4    28    10    1
     5    16     5    1
     6     8    22    1
     7     8    21    1
     8     8     7    1
     9     5    14    1
    10     5     3    1
    11     2     7    1
    12     2     3    1
    13    10    27    1
    14    10     7    1
    15    10    26    1
    16     7     9    1
    17    19     6    1
    18     3     6    1
    19     3     4    1
    20     6    17    1
    21     6    18    1
    22    12     4    1
    23     9    24    1
    24     9    23    1
    25     9    25    1
    26     4    11    1
    27     4    13    1
