@<TRIPOS>MOLECULE
1
 21 21 0 0 0
SMALL
GASTEIGER

@<TRIPOS>ATOM
      1 N           7.7622    4.3756    2.9899 N.3     1  UNL1        0.0000
      2 C           4.8420    4.2921    2.1789 C.3     1  UNL1        0.0000
      3 H           4.4521    4.3913    3.1867 H       1  UNL1        0.0000
      4 H           4.1353    3.6931    1.6124 H       1  UNL1        0.0000
      5 H           4.8646    5.2841    1.7383 H       1  UNL1        0.0000
      6 C           6.9695    3.2208    0.2947 C.3     1  UNL1        0.0000
      7 H           6.8426    4.1407   -0.2677 H       1  UNL1        0.0000
      8 H           6.2996    2.4808   -0.1333 H       1  UNL1        0.0000
      9 H           7.9868    2.8769    0.1376 H       1  UNL1        0.0000
     10 SI          6.5802    3.4821    2.1552 Si      1  UNL1        0.0000
     11 C           6.3509    1.7217    2.8660 C.ar    1  UNL1        0.0000
     12 C           7.0442    0.6353    2.3448 C.ar    1  UNL1        0.0000
     13 H           7.7067    0.7869    1.5058 H       1  UNL1        0.0000
     14 C           6.8971   -0.6373    2.8666 C.ar    1  UNL1        0.0000
     15 H           7.4509   -1.4641    2.4413 H       1  UNL1        0.0000
     16 C           6.0370   -0.8558    3.9288 C.ar    1  UNL1        0.0000
     17 H           5.9185   -1.8486    4.3406 H       1  UNL1        0.0000
     18 C           5.3222    0.2081    4.4513 C.ar    1  UNL1        0.0000
     19 H           4.6350    0.0464    5.2718 H       1  UNL1        0.0000
     20 C           5.4823    1.4762    3.9218 C.ar    1  UNL1        0.0000
     21 H           4.9091    2.2937    4.3313 H       1  UNL1        0.0000
@<TRIPOS>BOND
     1     7     6    1
     2     8     6    1
     3     9     6    1
     4     6    10    1
     5    13    12    1
     6     4     2    1
     7     5     2    1
     8    10     2    1
     9    10    11    1
    10    10     1    1
    11     2     3    1
    12    12    11   ar
    13    12    14   ar
    14    15    14    1
    15    11    20   ar
    16    14    16   ar
    17    20    21    1
    18    20    18   ar
    19    16    17    1
    20    16    18   ar
    21    18    19    1
