@<TRIPOS>MOLECULE
1
 18 18 0 0 0
SMALL
GASTEIGER

@<TRIPOS>ATOM
      1 N          10.9681   13.3132    9.2464 N.pl3   1  UNL1       -0.1288
      2 C          10.8098   14.4714    9.8801 C.ar    1  UNL1        0.0782
      3 C          10.0448   14.5672   11.0813 C.ar    1  UNL1       -0.0257
      4 C          10.0315   15.7454   11.7986 C.ar    1  UNL1       -0.0570
      5 C          10.7283   16.8639   11.3670 C.ar    1  UNL1       -0.0611
      6 C          11.4183   16.8089   10.1673 C.ar    1  UNL1       -0.0570
      7 C          11.4649   15.6507    9.4160 C.ar    1  UNL1       -0.0257
      8 C           9.2343   13.3893   11.5454 C.3     1  UNL1       -0.0378
      9 C          12.1636   15.6337    8.0865 C.3     1  UNL1       -0.0378
     10 H           9.4624   15.7930   12.7183 H       1  UNL1        0.0621
     11 H          10.7148   17.7735   11.9490 H       1  UNL1        0.0618
     12 H          11.9354   17.6888    9.8076 H       1  UNL1        0.0621
     13 H           8.1985   13.5004   11.2194 H       1  UNL1        0.0278
     14 H           9.2381   13.3207   12.6325 H       1  UNL1        0.0278
     15 H           9.6311   12.4717   11.1087 H       1  UNL1        0.0278
     16 H          13.0013   16.3280    8.0802 H       1  UNL1        0.0278
     17 H          12.5182   14.6278    7.8530 H       1  UNL1        0.0278
     18 H          11.4697   15.9379    7.2999 H       1  UNL1        0.0278
@<TRIPOS>BOND
     1    18     9    1
     2    17     9    1
     3    16     9    1
     4     9     7    1
     5     1     2    1
     6     7     2   ar
     7     7     6   ar
     8    12     6    1
     9     2     3   ar
    10     6     5   ar
    11     3     8    1
    12     3     4   ar
    13    15     8    1
    14    13     8    1
    15     5     4   ar
    16     5    11    1
    17     8    14    1
    18     4    10    1
