@<TRIPOS>MOLECULE
1
 29 28 0 0 0
SMALL
GASTEIGER

@<TRIPOS>ATOM
      1 N           3.9942    3.6187    6.2428 N.3     1  UNL1        0.0000
      2 N           5.0473    3.9233    6.5685 N.3     1  UNL1        0.0000
      3 C           6.2326    4.1565    6.9143 C.3     1  UNL1        0.0000
      4 SI          6.8149    5.9596    6.9885 Si      1  UNL1        0.0000
      5 C           5.2828    7.0573    6.7138 C.3     1  UNL1        0.0000
      6 C           8.0952    6.2871    5.6128 C.3     1  UNL1        0.0000
      7 C           7.5942    6.2927    8.6944 C.3     1  UNL1        0.0000
      8 SI          7.2181    2.5792    7.3473 Si      1  UNL1        0.0000
      9 C           6.4482    1.1497    6.3548 C.3     1  UNL1        0.0000
     10 C           7.0441    2.2514    9.2201 C.3     1  UNL1        0.0000
     11 C           9.0453    2.8467    6.8917 C.3     1  UNL1        0.0000
     12 H           5.5372    8.1124    6.7285 H       1  UNL1        0.0000
     13 H           4.5369    6.8888    7.4845 H       1  UNL1        0.0000
     14 H           4.8233    6.8458    5.7525 H       1  UNL1        0.0000
     15 H           8.3857    7.3333    5.5886 H       1  UNL1        0.0000
     16 H           7.6991    6.0345    4.6340 H       1  UNL1        0.0000
     17 H           8.9955    5.7013    5.7633 H       1  UNL1        0.0000
     18 H           7.9770    7.3064    8.7596 H       1  UNL1        0.0000
     19 H           8.4218    5.6171    8.8836 H       1  UNL1        0.0000
     20 H           6.8699    6.1615    9.4912 H       1  UNL1        0.0000
     21 H           6.9133    0.1973    6.5892 H       1  UNL1        0.0000
     22 H           6.5481    1.3092    5.2853 H       1  UNL1        0.0000
     23 H           5.3853    1.0548    6.5672 H       1  UNL1        0.0000
     24 H           7.6407    1.3976    9.5271 H       1  UNL1        0.0000
     25 H           6.0126    2.0400    9.4860 H       1  UNL1        0.0000
     26 H           7.3700    3.1066    9.8041 H       1  UNL1        0.0000
     27 H           9.6344    1.9703    7.1416 H       1  UNL1        0.0000
     28 H           9.4664    3.6891    7.4295 H       1  UNL1        0.0000
     29 H           9.1685    3.0337    5.8305 H       1  UNL1        0.0000
@<TRIPOS>BOND
     1    16     6    1
     2    22     9    1
     3    15     6    1
     4     6    17    1
     5     6     4    1
     6    14     5    1
     7    29    11    1
     8     1     2    1
     9     9    23    1
    10     9    21    1
    11     9     8    1
    12     2     3    1
    13     5    12    1
    14     5     4    1
    15     5    13    1
    16    11    27    1
    17    11     8    1
    18    11    28    1
    19     3     4    1
    20     3     8    1
    21     4     7    1
    22     8    10    1
    23     7    18    1
    24     7    19    1
    25     7    20    1
    26    10    25    1
    27    10    24    1
    28    10    26    1
