@<TRIPOS>MOLECULE
1
 30 30 0 0 0
SMALL
GASTEIGER

@<TRIPOS>ATOM
      1 N          -2.2450    0.9535   -3.0144 N.pl3   1  UNL1       -0.1288
      2 C          -2.0106    0.8609   -1.6914 C.ar    1  UNL1        0.0792
      3 C          -1.3499    1.9001   -0.9939 C.ar    1  UNL1       -0.0200
      4 C          -1.1391    1.7677    0.3673 C.ar    1  UNL1       -0.0564
      5 H          -0.6409    2.5595    0.9068 H       1  UNL1        0.0621
      6 C          -1.5681    0.6481    1.0566 C.ar    1  UNL1       -0.0611
      7 H          -1.4004    0.5682    2.1204 H       1  UNL1        0.0618
      8 C          -2.2236   -0.3649    0.3797 C.ar    1  UNL1       -0.0564
      9 H          -2.5674   -1.2286    0.9279 H       1  UNL1        0.0621
     10 C          -2.4463   -0.2852   -0.9827 C.ar    1  UNL1       -0.0200
     11 C          -0.9019    3.1460   -1.7210 C.3     1  UNL1       -0.0196
     12 H          -1.0966    3.0045   -2.7970 H       1  UNL1        0.0344
     13 C          -3.2067   -1.3624   -1.7198 C.3     1  UNL1       -0.0196
     14 H          -2.9562   -1.2830   -2.7885 H       1  UNL1        0.0344
     15 C          -1.7233    4.3533   -1.2616 C.3     1  UNL1       -0.0586
     16 H          -2.7793    4.1790   -1.4503 H       1  UNL1        0.0235
     17 H          -1.4267    5.2436   -1.8112 H       1  UNL1        0.0235
     18 H          -1.5825    4.5354   -0.1984 H       1  UNL1        0.0235
     19 C           0.5945    3.3971   -1.5193 C.3     1  UNL1       -0.0586
     20 H           1.1709    2.5150   -1.7888 H       1  UNL1        0.0235
     21 H           0.8103    3.6434   -0.4825 H       1  UNL1        0.0235
     22 H           0.9236    4.2264   -2.1404 H       1  UNL1        0.0235
     23 C          -4.7103   -1.1033   -1.5798 C.3     1  UNL1       -0.0586
     24 H          -4.9577   -0.1249   -1.9907 H       1  UNL1        0.0235
     25 H          -5.0024   -1.1245   -0.5317 H       1  UNL1        0.0235
     26 H          -5.2775   -1.8598   -2.1183 H       1  UNL1        0.0235
     27 C          -2.8531   -2.7743   -1.2545 C.3     1  UNL1       -0.0586
     28 H          -3.2866   -3.5063   -1.9331 H       1  UNL1        0.0235
     29 H          -3.2442   -2.9698   -0.2592 H       1  UNL1        0.0235
     30 H          -1.7742   -2.9140   -1.2374 H       1  UNL1        0.0235
@<TRIPOS>BOND
     1     1     2    1
     2    12    11    1
     3    14    13    1
     4    22    19    1
     5    26    23    1
     6    24    23    1
     7    28    27    1
     8    17    15    1
     9    20    19    1
    10    11    19    1
    11    11    15    1
    12    11     3    1
    13    13    23    1
    14    13    27    1
    15    13    10    1
    16     2     3   ar
    17     2    10   ar
    18    23    25    1
    19    19    21    1
    20    16    15    1
    21    15    18    1
    22    27    30    1
    23    27    29    1
    24     3     4   ar
    25    10     8   ar
    26     4     5    1
    27     4     6   ar
    28     8     9    1
    29     8     6   ar
    30     6     7    1
