@<TRIPOS>MOLECULE
1
 30 30 0 0 0
SMALL
GASTEIGER

@<TRIPOS>ATOM
      1 N          -3.0828    3.0464   -4.8016 N.pl3   1  UNL1       -0.1288
      2 C          -3.3364    4.3392   -4.5631 C.ar    1  UNL1        0.0792
      3 C          -2.3481    5.3233   -4.8054 C.ar    1  UNL1       -0.0200
      4 C          -2.6312    6.6466   -4.5237 C.ar    1  UNL1       -0.0564
      5 H          -1.8859    7.4052   -4.7095 H       1  UNL1        0.0621
      6 C          -3.8579    7.0209   -4.0035 C.ar    1  UNL1       -0.0611
      7 H          -4.0570    8.0582   -3.7787 H       1  UNL1        0.0618
      8 C          -4.8344    6.0644   -3.7837 C.ar    1  UNL1       -0.0564
      9 H          -5.7897    6.3736   -3.3888 H       1  UNL1        0.0621
     10 C          -4.6040    4.7307   -4.0634 C.ar    1  UNL1       -0.0200
     11 C          -1.0312    4.9001   -5.4142 C.3     1  UNL1       -0.0196
     12 H          -0.8849    3.8324   -5.1773 H       1  UNL1        0.0344
     13 C          -5.6517    3.6606   -3.8581 C.3     1  UNL1       -0.0196
     14 H          -5.5211    2.9180   -4.6632 H       1  UNL1        0.0344
     15 C           0.1633    5.6856   -4.8742 C.3     1  UNL1       -0.0586
     16 H           0.1398    5.7187   -3.7881 H       1  UNL1        0.0235
     17 H           0.1641    6.7056   -5.2514 H       1  UNL1        0.0235
     18 H           1.0929    5.2133   -5.1866 H       1  UNL1        0.0235
     19 C          -1.1158    5.0414   -6.9378 C.3     1  UNL1       -0.0586
     20 H          -1.9143    4.4137   -7.3273 H       1  UNL1        0.0235
     21 H          -0.1770    4.7434   -7.4014 H       1  UNL1        0.0235
     22 H          -1.3222    6.0752   -7.2088 H       1  UNL1        0.0235
     23 C          -5.4152    2.9457   -2.5213 C.3     1  UNL1       -0.0586
     24 H          -4.4229    2.4820   -2.5123 H       1  UNL1        0.0235
     25 H          -6.1672    2.1724   -2.3710 H       1  UNL1        0.0235
     26 H          -5.4797    3.6557   -1.6985 H       1  UNL1        0.0235
     27 C          -7.0851    4.1844   -3.9272 C.3     1  UNL1       -0.0586
     28 H          -7.7803    3.3478   -3.9543 H       1  UNL1        0.0235
     29 H          -7.2339    4.7852   -4.8216 H       1  UNL1        0.0235
     30 H          -7.3228    4.7883   -3.0545 H       1  UNL1        0.0235
@<TRIPOS>BOND
     1    21    19    1
     2    20    19    1
     3    22    19    1
     4    19    11    1
     5    11    12    1
     6    11    15    1
     7    11     3    1
     8    17    15    1
     9    18    15    1
    10    15    16    1
    11    29    27    1
    12     3     2   ar
    13     3     4   ar
    14     1     2    1
    15     5     4    1
    16    14    13    1
    17     2    10   ar
    18     4     6   ar
    19    10    13    1
    20    10     8   ar
    21     6     8   ar
    22     6     7    1
    23    28    27    1
    24    27    13    1
    25    27    30    1
    26    13    23    1
    27     8     9    1
    28    23    24    1
    29    23    25    1
    30    23    26    1
