@<TRIPOS>MOLECULE
1
 30 30 0 0 0
SMALL
GASTEIGER

@<TRIPOS>ATOM
      1 N           5.0142    3.2600    4.9668 N.pl3   1  UNL1       -0.1288
      2 C           4.7510    4.5680    5.0733 C.ar    1  UNL1        0.0792
      3 C           5.7454    5.4672    5.5378 C.ar    1  UNL1       -0.0200
      4 C           5.4657    6.8188    5.5870 C.ar    1  UNL1       -0.0564
      5 H           6.2205    7.5126    5.9238 H       1  UNL1        0.0621
      6 C           4.2262    7.3086    5.2094 C.ar    1  UNL1       -0.0611
      7 H           4.0272    8.3692    5.2519 H       1  UNL1        0.0618
      8 C           3.2408    6.4325    4.7918 C.ar    1  UNL1       -0.0564
      9 H           2.2699    6.8225    4.5222 H       1  UNL1        0.0621
     10 C           3.4756    5.0719    4.7165 C.ar    1  UNL1       -0.0200
     11 C           7.0777    4.8939    5.9642 C.3     1  UNL1       -0.0196
     12 H           6.8739    3.9123    6.4181 H       1  UNL1        0.0344
     13 C           7.8134    5.7538    6.9908 C.3     1  UNL1       -0.0586
     14 H           8.6646    5.2043    7.3884 H       1  UNL1        0.0235
     15 H           8.1895    6.6681    6.5377 H       1  UNL1        0.0235
     16 H           7.1565    6.0162    7.8169 H       1  UNL1        0.0235
     17 C           7.9641    4.6608    4.7343 C.3     1  UNL1       -0.0586
     18 H           8.9362    4.2757    5.0380 H       1  UNL1        0.0235
     19 H           7.4913    3.9359    4.0660 H       1  UNL1        0.0235
     20 H           8.1180    5.5952    4.1975 H       1  UNL1        0.0235
     21 C           2.3805    4.1158    4.2997 C.3     1  UNL1       -0.0196
     22 H           2.8414    3.1268    4.1288 H       1  UNL1        0.0344
     23 C           1.3599    3.9834    5.4343 C.3     1  UNL1       -0.0586
     24 H           0.5593    3.3016    5.1531 H       1  UNL1        0.0235
     25 H           1.8421    3.6020    6.3315 H       1  UNL1        0.0235
     26 H           0.9213    4.9525    5.6634 H       1  UNL1        0.0235
     27 C           1.6874    4.5459    3.0065 C.3     1  UNL1       -0.0586
     28 H           0.9966    3.7723    2.6747 H       1  UNL1        0.0235
     29 H           1.1207    5.4625    3.1517 H       1  UNL1        0.0235
     30 H           2.4209    4.7149    2.2227 H       1  UNL1        0.0235
@<TRIPOS>BOND
     1    30    27    1
     2    28    27    1
     3    27    29    1
     4    27    21    1
     5    19    17    1
     6    22    21    1
     7    20    17    1
     8    21    10    1
     9    21    23    1
    10     9     8    1
    11    10     8   ar
    12    10     2   ar
    13    17    18    1
    14    17    11    1
    15     8     6   ar
    16     1     2    1
    17     2     3   ar
    18    24    23    1
    19     6     7    1
    20     6     4   ar
    21    23    26    1
    22    23    25    1
    23     3     4   ar
    24     3    11    1
    25     4     5    1
    26    11    12    1
    27    11    13    1
    28    15    13    1
    29    13    14    1
    30    13    16    1
