@<TRIPOS>MOLECULE
1
 30 30 0 0 0
SMALL
GASTEIGER

@<TRIPOS>ATOM
      1 N           6.4684    1.7374    2.9610 N.pl3   1  UNL1       -0.1288
      2 C           7.1760    2.0915    1.8711 C.ar    1  UNL1        0.0792
      3 C           8.4308    1.4924    1.6083 C.ar    1  UNL1       -0.0200
      4 C           9.1519    1.8740    0.4920 C.ar    1  UNL1       -0.0564
      5 H          10.1147    1.4232    0.3003 H       1  UNL1        0.0621
      6 C           8.6631    2.8257   -0.3838 C.ar    1  UNL1       -0.0611
      7 H           9.2372    3.1127   -1.2523 H       1  UNL1        0.0618
      8 C           7.4355    3.4124   -0.1346 C.ar    1  UNL1       -0.0564
      9 H           7.0636    4.1618   -0.8180 H       1  UNL1        0.0621
     10 C           6.6812    3.0704    0.9735 C.ar    1  UNL1       -0.0200
     11 C           5.3503    3.7429    1.2230 C.3     1  UNL1       -0.0196
     12 H           4.8888    3.2816    2.1153 H       1  UNL1        0.0344
     13 C           4.4085    3.5532    0.0304 C.3     1  UNL1       -0.0586
     14 H           3.4207    3.9473    0.2592 H       1  UNL1        0.0235
     15 H           4.7851    4.0749   -0.8461 H       1  UNL1        0.0235
     16 H           4.3098    2.4983   -0.2167 H       1  UNL1        0.0235
     17 C           5.5503    5.2301    1.5262 C.3     1  UNL1       -0.0586
     18 H           4.5942    5.7120    1.7184 H       1  UNL1        0.0235
     19 H           6.1703    5.3501    2.4105 H       1  UNL1        0.0235
     20 H           6.0307    5.7336    0.6900 H       1  UNL1        0.0235
     21 C           8.9870    0.4710    2.5732 C.3     1  UNL1       -0.0196
     22 H           8.2047    0.2517    3.3131 H       1  UNL1        0.0344
     23 C           9.3607   -0.8347    1.8696 C.3     1  UNL1       -0.0586
     24 H           9.6614   -1.5830    2.6007 H       1  UNL1        0.0235
     25 H           8.5123   -1.2202    1.3077 H       1  UNL1        0.0235
     26 H          10.1873   -0.6841    1.1799 H       1  UNL1        0.0235
     27 C          10.1888    1.0529    3.3212 C.3     1  UNL1       -0.0586
     28 H          10.5597    0.3426    4.0580 H       1  UNL1        0.0235
     29 H          10.9950    1.2852    2.6291 H       1  UNL1        0.0235
     30 H           9.8991    1.9692    3.8314 H       1  UNL1        0.0235
@<TRIPOS>BOND
     1     7     6    1
     2    15    13    1
     3     9     8    1
     4     6     8   ar
     5     6     4   ar
     6    16    13    1
     7     8    10   ar
     8    13    14    1
     9    13    11    1
    10     5     4    1
    11     4     3   ar
    12    20    17    1
    13    10    11    1
    14    10     2   ar
    15    26    23    1
    16    11    17    1
    17    11    12    1
    18    25    23    1
    19    17    18    1
    20    17    19    1
    21     3     2   ar
    22     3    21    1
    23    23    21    1
    24    23    24    1
    25     2     1    1
    26    21    22    1
    27    21    27    1
    28    29    27    1
    29    27    30    1
    30    27    28    1
