@<TRIPOS>MOLECULE
1
 6 5 0 0 0
SMALL
GASTEIGER

@<TRIPOS>ATOM
      1 N           2.7850   12.9764    4.4428 N.3     1  UNL1       -0.1324
      2 C           2.9905   14.0770    4.6986 C.3     1  UNL1        0.0975
      3 C           3.2141   15.4517    5.0023 C.3     1  UNL1       -0.0400
      4 H           4.1044   15.8041    4.4824 H       1  UNL1        0.0250
      5 H           3.3276   15.5894    6.0767 H       1  UNL1        0.0250
      6 H           2.3402   16.0056    4.6493 H       1  UNL1        0.0250
@<TRIPOS>BOND
     1     1     2    1
     2     4     3    1
     3     6     3    1
     4     2     3    1
     5     3     5    1
