@<TRIPOS>MOLECULE
4
 51 52 0 0 0
SMALL
GASTEIGER

@<TRIPOS>ATOM
      1 SI          3.7140   -3.5801    3.8712 Si      1  UNL1        0.0000
      2 SI          6.3091   -3.4902    5.5386 Si      1  UNL1        0.0000
      3 P           4.0638   -1.7030    5.9506 P.3     1  UNL1        0.0000
      4 N           4.1938   -0.5633    4.9040 N.3     1  UNL1        0.0000
      5 N           4.5708   -3.1982    5.3861 N.3     1  UNL1        0.0000
      6 C           2.3611   -2.0053    6.5329 C.ar    1  UNL1        0.0000
      7 C           1.9597   -3.2312    7.0472 C.ar    1  UNL1        0.0000
      8 C           0.6582   -3.4004    7.4864 C.ar    1  UNL1        0.0000
      9 C          -0.2415   -2.3482    7.4120 C.ar    1  UNL1        0.0000
     10 C           0.1567   -1.1259    6.8934 C.ar    1  UNL1        0.0000
     11 C           1.4582   -0.9534    6.4558 C.ar    1  UNL1        0.0000
     12 C           4.9508   -1.3142    7.4950 C.ar    1  UNL1        0.0000
     13 C           5.9808   -0.3853    7.4109 C.ar    1  UNL1        0.0000
     14 C           6.6597    0.0066    8.5505 C.ar    1  UNL1        0.0000
     15 C           6.3009   -0.5173    9.7824 C.ar    1  UNL1        0.0000
     16 C           5.2578   -1.4247    9.8728 C.ar    1  UNL1        0.0000
     17 C           4.5787   -1.8204    8.7336 C.ar    1  UNL1        0.0000
     18 C           7.2922   -2.0802    4.7169 C.3     1  UNL1        0.0000
     19 C           6.7774   -3.7669    7.3743 C.3     1  UNL1        0.0000
     20 C           6.7136   -5.1790    4.7462 C.3     1  UNL1        0.0000
     21 C           3.2348   -5.4208    4.0443 C.3     1  UNL1        0.0000
     22 C           4.8202   -3.1720    2.3764 C.3     1  UNL1        0.0000
     23 C           2.1013   -2.6092    3.5697 C.3     1  UNL1        0.0000
     24 H           2.6683   -4.0465    7.0785 H       1  UNL1        0.0000
     25 H           0.3411   -4.3533    7.8853 H       1  UNL1        0.0000
     26 H          -1.2572   -2.4838    7.7540 H       1  UNL1        0.0000
     27 H          -0.5505   -0.3114    6.8259 H       1  UNL1        0.0000
     28 H           1.7931   -0.0149    6.0243 H       1  UNL1        0.0000
     29 H           6.2248    0.0357    6.4427 H       1  UNL1        0.0000
     30 H           7.4608    0.7271    8.4787 H       1  UNL1        0.0000
     31 H           6.8268   -0.2109   10.6747 H       1  UNL1        0.0000
     32 H           4.9697   -1.8217   10.8356 H       1  UNL1        0.0000
     33 H           3.7618   -2.5237    8.8070 H       1  UNL1        0.0000
     34 H           8.0543   -1.6756    5.3769 H       1  UNL1        0.0000
     35 H           6.6166   -1.2655    4.4442 H       1  UNL1        0.0000
     36 H           7.7901   -2.4032    3.8074 H       1  UNL1        0.0000
     37 H           7.1262   -2.8646    7.8634 H       1  UNL1        0.0000
     38 H           7.5818   -4.4940    7.4264 H       1  UNL1        0.0000
     39 H           5.9472   -4.1561    7.9554 H       1  UNL1        0.0000
     40 H           6.3456   -5.2982    3.7359 H       1  UNL1        0.0000
     41 H           6.3199   -5.9957    5.3414 H       1  UNL1        0.0000
     42 H           7.7916   -5.2945    4.7221 H       1  UNL1        0.0000
     43 H           4.0459   -6.0242    4.4299 H       1  UNL1        0.0000
     44 H           2.9642   -5.8122    3.0710 H       1  UNL1        0.0000
     45 H           2.3794   -5.5567    4.6984 H       1  UNL1        0.0000
     46 H           4.3238   -3.4250    1.4448 H       1  UNL1        0.0000
     47 H           5.7737   -3.6867    2.3898 H       1  UNL1        0.0000
     48 H           5.0266   -2.1016    2.3654 H       1  UNL1        0.0000
     49 H           2.3226   -1.5396    3.5732 H       1  UNL1        0.0000
     50 H           1.3258   -2.8099    4.3016 H       1  UNL1        0.0000
     51 H           1.6983   -2.8702    2.5948 H       1  UNL1        0.0000
@<TRIPOS>BOND
     1    46    22    1
     2    48    22    1
     3    22    47    1
     4    22     1    1
     5    51    23    1
     6    44    21    1
     7    23    49    1
     8    23     1    1
     9    23    50    1
    10    40    20    1
    11    36    18    1
    12     1    21    1
    13     1     5    1
    14    21    43    1
    15    21    45    1
    16    35    18    1
    17    18    34    1
    18    18     2    1
    19    42    20    1
    20    20    41    1
    21    20     2    1
    22     4     3    1
    23     5     2    1
    24     5     3    1
    25     2    19    1
    26     3     6    1
    27     3    12    1
    28    28    11    1
    29    29    13    1
    30    11     6   ar
    31    11    10   ar
    32     6     7   ar
    33    27    10    1
    34    10     9   ar
    35     7    24    1
    36     7     8   ar
    37    19    38    1
    38    19    37    1
    39    19    39    1
    40    13    12   ar
    41    13    14   ar
    42     9     8   ar
    43     9    26    1
    44     8    25    1
    45    12    17   ar
    46    30    14    1
    47    14    15   ar
    48    17    33    1
    49    17    16   ar
    50    15    16   ar
    51    15    31    1
    52    16    32    1
