@<TRIPOS>MOLECULE
3
 26 26 0 0 0
SMALL
GASTEIGER

@<TRIPOS>ATOM
      1 SI          4.4213   12.7588   13.5611 Si      1  UNL1        0.0000
      2 SI          6.5836   10.9217   14.4152 Si      1  UNL1        0.0000
      3 N           4.0946   10.0396   13.7711 N.3     1  UNL1        0.0000
      4 N           4.8919   11.0690   13.8832 N.3     1  UNL1        0.0000
      5 C           3.1254   12.9350   12.1991 C.3     1  UNL1        0.0000
      6 H           3.5483   12.8374   11.2056 H       1  UNL1        0.0000
      7 H           2.6395   13.9027   12.2620 H       1  UNL1        0.0000
      8 H           2.3632   12.1743   12.3255 H       1  UNL1        0.0000
      9 C           7.5048    9.6094   13.3917 C.3     1  UNL1        0.0000
     10 H           7.1453    8.6062   13.5905 H       1  UNL1        0.0000
     11 H           8.5652    9.6305   13.6234 H       1  UNL1        0.0000
     12 H           7.3931    9.7947   12.3275 H       1  UNL1        0.0000
     13 C           3.8665   13.5680   15.1940 C.3     1  UNL1        0.0000
     14 H           2.9606   13.1081   15.5741 H       1  UNL1        0.0000
     15 H           3.6638   14.6245   15.0472 H       1  UNL1        0.0000
     16 H           4.6310   13.4817   15.9608 H       1  UNL1        0.0000
     17 C           6.1597   13.3587   13.0632 C.3     1  UNL1        0.0000
     18 H           6.3764   13.0662   12.0350 H       1  UNL1        0.0000
     19 H           6.2543   14.4428   13.1036 H       1  UNL1        0.0000
     20 C           7.1682   12.6902   13.9998 C.3     1  UNL1        0.0000
     21 H           7.2366   13.2694   14.9206 H       1  UNL1        0.0000
     22 H           8.1662   12.6976   13.5627 H       1  UNL1        0.0000
     23 C           6.7129   10.6367   16.2940 C.3     1  UNL1        0.0000
     24 H           6.2187   11.4311   16.8460 H       1  UNL1        0.0000
     25 H           7.7550   10.6225   16.5980 H       1  UNL1        0.0000
     26 H           6.2662    9.6995   16.6014 H       1  UNL1        0.0000
@<TRIPOS>BOND
     1     6     5    1
     2    18    17    1
     3     5     7    1
     4     5     8    1
     5     5     1    1
     6    12     9    1
     7    17    19    1
     8    17     1    1
     9    17    20    1
    10     9    10    1
    11     9    11    1
    12     9     2    1
    13     1     4    1
    14     1    13    1
    15    22    20    1
    16     3     4    1
    17     4     2    1
    18    20     2    1
    19    20    21    1
    20     2    23    1
    21    15    13    1
    22    13    14    1
    23    13    16    1
    24    23    25    1
    25    23    26    1
    26    23    24    1
