@<TRIPOS>MOLECULE
3
 26 26 0 0 0
SMALL
GASTEIGER

@<TRIPOS>ATOM
      1 SI          6.6026    4.9592   14.0656 Si      1  UNL1        0.0000
      2 SI          8.7428    3.8157   15.8643 Si      1  UNL1        0.0000
      3 N           6.1894    4.1283   16.6136 N.3     1  UNL1        0.0000
      4 N           7.0362    4.2679   15.6443 N.3     1  UNL1        0.0000
      5 C           8.9193    1.9229   15.7315 C.3     1  UNL1        0.0000
      6 H           8.1035    1.4129   16.2330 H       1  UNL1        0.0000
      7 H           9.8487    1.5849   16.1788 H       1  UNL1        0.0000
      8 H           8.9170    1.6039   14.6928 H       1  UNL1        0.0000
      9 C           9.2856    4.5540   17.5258 C.3     1  UNL1        0.0000
     10 H           9.6991    5.5520   17.4191 H       1  UNL1        0.0000
     11 H          10.0229    3.9361   18.0263 H       1  UNL1        0.0000
     12 H           8.4119    4.6181   18.1726 H       1  UNL1        0.0000
     13 C           6.3433    6.8381   14.2209 C.3     1  UNL1        0.0000
     14 H           5.6842    7.0791   15.0485 H       1  UNL1        0.0000
     15 H           5.8960    7.2461   13.3198 H       1  UNL1        0.0000
     16 H           7.2850    7.3545   14.3862 H       1  UNL1        0.0000
     17 C           5.1070    4.0068   13.3904 C.3     1  UNL1        0.0000
     18 H           5.4064    3.1601   12.7794 H       1  UNL1        0.0000
     19 H           4.4740    4.6472   12.7857 H       1  UNL1        0.0000
     20 H           4.5096    3.6249   14.2142 H       1  UNL1        0.0000
     21 C           9.3817    4.6656   14.2825 C.3     1  UNL1        0.0000
     22 H           9.6119    5.7126   14.4809 H       1  UNL1        0.0000
     23 H          10.3003    4.2115   13.9132 H       1  UNL1        0.0000
     24 C           8.2752    4.5871   13.2242 C.3     1  UNL1        0.0000
     25 H           8.2645    3.5852   12.7946 H       1  UNL1        0.0000
     26 H           8.4817    5.2721   12.4028 H       1  UNL1        0.0000
@<TRIPOS>BOND
     1    26    24    1
     2    18    17    1
     3    19    17    1
     4    25    24    1
     5    24     1    1
     6    24    21    1
     7    15    13    1
     8    17     1    1
     9    17    20    1
    10    23    21    1
    11     1    13    1
    12     1     4    1
    13    13    16    1
    14    13    14    1
    15    21    22    1
    16    21     2    1
    17     8     5    1
    18     4     2    1
    19     4     3    1
    20     5     2    1
    21     5     7    1
    22     5     6    1
    23     2     9    1
    24    10     9    1
    25     9    11    1
    26     9    12    1
