@<TRIPOS>MOLECULE
1
 14 13 0 0 0
SMALL
GASTEIGER

@<TRIPOS>ATOM
      1 N           1.8270    4.2379    2.7971 N.3     1  UNL1       -0.1371
      2 C           2.6791    4.9982    3.6052 C.3     1  UNL1        0.0466
      3 C           1.8469    5.8159    4.6146 C.3     1  UNL1       -0.0443
      4 C           3.5056    5.9485    2.7166 C.3     1  UNL1       -0.0443
      5 C           3.6322    4.0638    4.3764 C.3     1  UNL1       -0.0443
      6 H           1.2593    5.1368    5.2294 H       1  UNL1        0.0248
      7 H           1.1646    6.4763    4.0842 H       1  UNL1        0.0248
      8 H           2.4974    6.4100    5.2518 H       1  UNL1        0.0248
      9 H           2.8436    6.6263    2.1840 H       1  UNL1        0.0248
     10 H           4.0636    5.3698    1.9836 H       1  UNL1        0.0248
     11 H           4.1996    6.5265    3.3221 H       1  UNL1        0.0248
     12 H           3.0500    3.3670    4.9760 H       1  UNL1        0.0248
     13 H           4.2843    4.6412    5.0273 H       1  UNL1        0.0248
     14 H           4.2387    3.4985    3.6736 H       1  UNL1        0.0248
@<TRIPOS>BOND
     1    10     4    1
     2     9     4    1
     3     4    11    1
     4     4     2    1
     5     1     2    1
     6     2     5    1
     7     2     3    1
     8    14     5    1
     9     7     3    1
    10     5    12    1
    11     5    13    1
    12     3     6    1
    13     3     8    1
