@<TRIPOS>MOLECULE
1
 14 13 0 0 0
SMALL
GASTEIGER

@<TRIPOS>ATOM
      1 N          -0.6247    2.8634    3.0771 N.3     1  UNL1       -0.1371
      2 C          -1.4631    2.5964    4.1705 C.3     1  UNL1        0.0466
      3 C          -0.6135    1.9924    5.3077 C.3     1  UNL1       -0.0443
      4 C          -2.5734    1.6073    3.7682 C.3     1  UNL1       -0.0443
      5 C          -2.1005    3.9101    4.6665 C.3     1  UNL1       -0.0443
      6 H          -1.2269    1.8008    6.1849 H       1  UNL1        0.0248
      7 H           0.1830    2.6889    5.5625 H       1  UNL1        0.0248
      8 H          -0.1597    1.0612    4.9771 H       1  UNL1        0.0248
      9 H          -3.2298    1.4097    4.6121 H       1  UNL1        0.0248
     10 H          -2.1339    0.6705    3.4337 H       1  UNL1        0.0248
     11 H          -3.1599    2.0244    2.9526 H       1  UNL1        0.0248
     12 H          -2.6347    3.7444    5.5990 H       1  UNL1        0.0248
     13 H          -2.7984    4.2903    3.9248 H       1  UNL1        0.0248
     14 H          -1.3183    4.6513    4.8189 H       1  UNL1        0.0248
@<TRIPOS>BOND
     1    11     4    1
     2     1     2    1
     3    10     4    1
     4     4     2    1
     5     4     9    1
     6    13     5    1
     7     2     5    1
     8     2     3    1
     9     5    14    1
    10     5    12    1
    11     8     3    1
    12     3     7    1
    13     3     6    1
