@<TRIPOS>MOLECULE
1
 20 20 0 0 0
SMALL
GASTEIGER

@<TRIPOS>ATOM
      1 N           8.4775   -0.4471    4.9214 N.3     1  UNL1       -0.1056
      2 N          10.4823    0.2329    3.7788 N.pl3   1  UNL1       -0.2177
      3 C           9.5092   -0.1986    4.3836 C.3     1  UNL1        0.2205
      4 C          11.7567   -0.1716    3.5053 C.ar    1  UNL1        0.0561
      5 C          12.5333    0.6770    2.7008 C.ar    1  UNL1       -0.0276
      6 C          13.8324    0.3142    2.3952 C.ar    1  UNL1       -0.0570
      7 C          14.3690   -0.8699    2.8716 C.ar    1  UNL1       -0.0611
      8 C          13.5992   -1.7017    3.6656 C.ar    1  UNL1       -0.0570
      9 C          12.2949   -1.3734    3.9958 C.ar    1  UNL1       -0.0276
     10 C          11.9317    1.9513    2.1899 C.3     1  UNL1       -0.0379
     11 C          11.4674   -2.2732    4.8639 C.3     1  UNL1       -0.0379
     12 H          14.4323    0.9651    1.7745 H       1  UNL1        0.0621
     13 H          15.3838   -1.1443    2.6244 H       1  UNL1        0.0618
     14 H          14.0190   -2.6263    4.0373 H       1  UNL1        0.0621
     15 H          12.6576    2.5178    1.6118 H       1  UNL1        0.0278
     16 H          11.5824    2.5641    3.0205 H       1  UNL1        0.0278
     17 H          11.0697    1.7338    1.5603 H       1  UNL1        0.0278
     18 H          12.0088   -3.1882    5.0926 H       1  UNL1        0.0278
     19 H          11.2184   -1.7737    5.8020 H       1  UNL1        0.0278
     20 H          10.5299   -2.5349    4.3701 H       1  UNL1        0.0278
@<TRIPOS>BOND
     1    17    10    1
     2    15    10    1
     3    12     6    1
     4    10     5    1
     5    10    16    1
     6     6     5   ar
     7     6     7   ar
     8    13     7    1
     9     5     4   ar
    10     7     8   ar
    11     4     2    1
    12     4     9   ar
    13     8     9   ar
    14     8    14    1
    15     2     3    1
    16     9    11    1
    17    20    11    1
    18     3     1    1
    19    11    18    1
    20    11    19    1
