@<TRIPOS>MOLECULE
1
 37 39 0 0 0
SMALL
GASTEIGER

@<TRIPOS>ATOM
      1 N          13.2681    4.4162    6.2482 N.pl3   1  UNL1        0.2186
      2 N          12.6640    3.3129    8.1722 N.2     1  UNL1        0.0613
      3 N          12.8180    2.1853    8.9572 N.pl3   1  UNL1       -0.1004
      4 F          16.0253    3.6200    6.5047 F       1  UNL1       -0.2014
      5 F          17.5201    1.7339    5.2275 F       1  UNL1       -0.1993
      6 F          16.3512   -0.5820    4.3853 F       1  UNL1       -0.1993
      7 F          13.7065   -1.0327    4.8926 F       1  UNL1       -0.1993
      8 F          12.2526    0.8033    6.2560 F       1  UNL1       -0.2014
      9 C          13.2901    3.3843    7.0305 C.2     1  UNL1        0.4410
     10 C          14.1163    2.2435    6.4465 C.ar    1  UNL1        0.1520
     11 C          15.4562    2.4585    6.1420 C.ar    1  UNL1        0.1794
     12 C          16.2199    1.5126    5.4786 C.ar    1  UNL1        0.1972
     13 C          15.6284    0.3265    5.0543 C.ar    1  UNL1        0.1991
     14 C          14.2816    0.1012    5.3134 C.ar    1  UNL1        0.1972
     15 C          13.5437    1.0523    6.0084 C.ar    1  UNL1        0.1794
     16 C          14.0635    1.5697    9.0804 C.ar    1  UNL1        0.0796
     17 C          15.2234    2.3451    9.1686 C.ar    1  UNL1       -0.0366
     18 C          16.4608    1.7383    9.2357 C.ar    1  UNL1       -0.0599
     19 C          16.5684    0.3561    9.2233 C.ar    1  UNL1       -0.0616
     20 C          15.4204   -0.4179    9.1500 C.ar    1  UNL1       -0.0599
     21 C          14.1767    0.1764    9.0785 C.ar    1  UNL1       -0.0366
     22 C          11.7076    1.7818    9.6742 C.ar    1  UNL1        0.0796
     23 C          10.4339    2.1744    9.2530 C.ar    1  UNL1       -0.0366
     24 C           9.3155    1.7952    9.9650 C.ar    1  UNL1       -0.0599
     25 C           9.4354    1.0188   11.1067 C.ar    1  UNL1       -0.0616
     26 C          10.6969    0.6395   11.5380 C.ar    1  UNL1       -0.0599
     27 C          11.8253    1.0192   10.8405 C.ar    1  UNL1       -0.0366
     28 H          15.1384    3.4221    9.1711 H       1  UNL1        0.0637
     29 H          17.3488    2.3495    9.3043 H       1  UNL1        0.0618
     30 H          17.5385   -0.1148    9.2733 H       1  UNL1        0.0618
     31 H          15.4966   -1.4956    9.1388 H       1  UNL1        0.0618
     32 H          13.2838   -0.4269    9.0046 H       1  UNL1        0.0637
     33 H          10.3494    2.7708    8.3597 H       1  UNL1        0.0637
     34 H           8.3371    2.1000    9.6209 H       1  UNL1        0.0618
     35 H           8.5576    0.7154   11.6575 H       1  UNL1        0.0618
     36 H          10.8035    0.0472   12.4358 H       1  UNL1        0.0618
     37 H          12.8026    0.7368   11.2029 H       1  UNL1        0.0637
@<TRIPOS>BOND
     1     6    13    1
     2     7    14    1
     3    13    14   ar
     4    13    12   ar
     5     5    12    1
     6    14    15   ar
     7    12    11   ar
     8    15     8    1
     9    15    10   ar
    10    11    10   ar
    11    11     4    1
    12     1     9    1
    13    10     9    1
    14     9     2    2
    15     2     3    1
    16    33    23    1
    17     3    16    1
    18     3    22    1
    19    32    21    1
    20    21    16   ar
    21    21    20   ar
    22    16    17   ar
    23    31    20    1
    24    20    19   ar
    25    17    28    1
    26    17    18   ar
    27    19    18   ar
    28    19    30    1
    29    18    29    1
    30    23    22   ar
    31    23    24   ar
    32    34    24    1
    33    22    27   ar
    34    24    25   ar
    35    27    37    1
    36    27    26   ar
    37    25    26   ar
    38    25    35    1
    39    26    36    1
