@<TRIPOS>MOLECULE
1
 37 39 0 0 0
SMALL
GASTEIGER

@<TRIPOS>ATOM
      1 N           8.9376   11.9351   13.1144 N.pl3   1  UNL1        0.2186
      2 N           8.0804   13.0523   14.9139 N.2     1  UNL1        0.0613
      3 N           7.4862   14.1906   15.4076 N.pl3   1  UNL1       -0.1004
      4 F           9.5846   13.8830   11.3913 F       1  UNL1       -0.2014
      5 F           8.4211   15.2125    9.3432 F       1  UNL1       -0.1993
      6 F           5.7470   15.8005    9.4364 F       1  UNL1       -0.1993
      7 F           4.2649   14.9991   11.5855 F       1  UNL1       -0.1993
      8 F           5.4242   13.6531   13.6123 F       1  UNL1       -0.2014
      9 C           8.2204   12.8911   13.6226 C.2     1  UNL1        0.4410
     10 C           7.5545   13.7823   12.5894 C.ar    1  UNL1        0.1520
     11 C           8.2713   14.1727   11.4628 C.ar    1  UNL1        0.1794
     12 C           7.6862   14.8494   10.4050 C.ar    1  UNL1        0.1972
     13 C           6.3271   15.1447   10.4475 C.ar    1  UNL1        0.1991
     14 C           5.5766   14.7380   11.5450 C.ar    1  UNL1        0.1972
     15 C           6.1883   14.0593   12.5919 C.ar    1  UNL1        0.1794
     16 C           7.6792   15.4256   14.7831 C.ar    1  UNL1        0.0796
     17 C           8.9237   15.7423   14.2301 C.ar    1  UNL1       -0.0366
     18 C           9.1026   16.9356   13.5617 C.ar    1  UNL1       -0.0599
     19 C           8.0545   17.8351   13.4353 C.ar    1  UNL1       -0.0616
     20 C           6.8233   17.5325   13.9947 C.ar    1  UNL1       -0.0599
     21 C           6.6294   16.3391   14.6625 C.ar    1  UNL1       -0.0366
     22 C           6.8257   14.0599   16.6154 C.ar    1  UNL1        0.0796
     23 C           6.6396   15.1491   17.4724 C.ar    1  UNL1       -0.0366
     24 C           5.9814   14.9833   18.6736 C.ar    1  UNL1       -0.0599
     25 C           5.5095   13.7380   19.0579 C.ar    1  UNL1       -0.0616
     26 C           5.7131   12.6505   18.2238 C.ar    1  UNL1       -0.0599
     27 C           6.3613   12.8039   17.0163 C.ar    1  UNL1       -0.0366
     28 H           9.7383   15.0391   14.3301 H       1  UNL1        0.0637
     29 H          10.0700   17.1703   13.1424 H       1  UNL1        0.0618
     30 H           8.1977   18.7663   12.9087 H       1  UNL1        0.0618
     31 H           6.0023   18.2282   13.9011 H       1  UNL1        0.0618
     32 H           5.6644   16.0968   15.0821 H       1  UNL1        0.0637
     33 H           7.0237   16.1208   17.2002 H       1  UNL1        0.0637
     34 H           5.8428   15.8358   19.3231 H       1  UNL1        0.0618
     35 H           4.9935   13.6175   19.9986 H       1  UNL1        0.0618
     36 H           5.3527   11.6739   18.5149 H       1  UNL1        0.0618
     37 H           6.5173   11.9618   16.3620 H       1  UNL1        0.0637
@<TRIPOS>BOND
     1     5    12    1
     2     6    13    1
     3    12    13   ar
     4    12    11   ar
     5    13    14   ar
     6     4    11    1
     7    11    10   ar
     8    14     7    1
     9    14    15   ar
    10    10    15   ar
    11    10     9    1
    12    15     8    1
    13    30    19    1
    14     1     9    1
    15    29    18    1
    16    19    18   ar
    17    19    20   ar
    18    18    17   ar
    19     9     2    2
    20    31    20    1
    21    20    21   ar
    22    17    28    1
    23    17    16   ar
    24    21    16   ar
    25    21    32    1
    26    16     3    1
    27     2     3    1
    28     3    22    1
    29    37    27    1
    30    22    27   ar
    31    22    23   ar
    32    27    26   ar
    33    33    23    1
    34    23    24   ar
    35    26    36    1
    36    26    25   ar
    37    24    25   ar
    38    24    34    1
    39    25    35    1
