@<TRIPOS>MOLECULE
1
 24 25 0 0 0
SMALL
GASTEIGER

@<TRIPOS>ATOM
      1 N          -3.3690   12.4286   13.6714 N.3     1  UNL1       -0.0117
      2 N          -4.2731   12.5021   14.6136 N.pl3   1  UNL1       -0.2010
      3 C          -4.9547   11.3207   14.9678 C.ar    1  UNL1        0.0530
      4 C          -5.3258   10.4280   13.9586 C.ar    1  UNL1       -0.0389
      5 C          -5.9223    9.2265   14.2860 C.ar    1  UNL1       -0.0600
      6 C          -6.1480    8.8915   15.6121 C.ar    1  UNL1       -0.0616
      7 C          -5.7740    9.7731   16.6149 C.ar    1  UNL1       -0.0600
      8 C          -5.1828   10.9814   16.3039 C.ar    1  UNL1       -0.0389
      9 C          -4.5284   13.7183   15.2569 C.ar    1  UNL1        0.0530
     10 C          -5.7008   13.9420   15.9844 C.ar    1  UNL1       -0.0389
     11 C          -5.9257   15.1732   16.5689 C.ar    1  UNL1       -0.0600
     12 C          -5.0094   16.2033   16.4291 C.ar    1  UNL1       -0.0616
     13 C          -3.8672   15.9980   15.6684 C.ar    1  UNL1       -0.0600
     14 C          -3.6275   14.7745   15.0812 C.ar    1  UNL1       -0.0389
     15 H          -5.1429   10.7070   12.9295 H       1  UNL1        0.0637
     16 H          -6.2173    8.5450   13.5011 H       1  UNL1        0.0618
     17 H          -6.6110    7.9493   15.8637 H       1  UNL1        0.0618
     18 H          -5.9390    9.5125   17.6503 H       1  UNL1        0.0618
     19 H          -4.8703   11.6532   17.0894 H       1  UNL1        0.0637
     20 H          -6.4432   13.1637   16.0732 H       1  UNL1        0.0637
     21 H          -6.8340   15.3331   17.1318 H       1  UNL1        0.0618
     22 H          -5.1928   17.1607   16.8928 H       1  UNL1        0.0618
     23 H          -3.1600   16.8030   15.5305 H       1  UNL1        0.0618
     24 H          -2.7583   14.6016   14.4620 H       1  UNL1        0.0637
@<TRIPOS>BOND
     1    15     4    1
     2    16     5    1
     3     1     2    1
     4     4     5   ar
     5     4     3   ar
     6     5     6   ar
     7    24    14    1
     8     2     3    1
     9     2     9    1
    10     3     8   ar
    11    14     9   ar
    12    14    13   ar
    13     9    10   ar
    14    23    13    1
    15     6    17    1
    16     6     7   ar
    17    13    12   ar
    18    10    20    1
    19    10    11   ar
    20     8     7   ar
    21     8    19    1
    22    12    11   ar
    23    12    22    1
    24    11    21    1
    25     7    18    1
