@<TRIPOS>MOLECULE
1
 24 25 0 0 0
SMALL
GASTEIGER

@<TRIPOS>ATOM
      1 N           2.0473   17.1427    1.5936 N.3     1  UNL1       -0.0117
      2 N           1.3347   16.9401    0.4890 N.pl3   1  UNL1       -0.2010
      3 C           0.0379   17.4320    0.3745 C.ar    1  UNL1        0.0530
      4 C          -0.3401   18.5731    1.0912 C.ar    1  UNL1       -0.0389
      5 C          -1.6343   19.0464    1.0213 C.ar    1  UNL1       -0.0600
      6 C          -2.5795   18.3985    0.2411 C.ar    1  UNL1       -0.0616
      7 C          -2.2121   17.2651   -0.4708 C.ar    1  UNL1       -0.0600
      8 C          -0.9235   16.7788   -0.4073 C.ar    1  UNL1       -0.0389
      9 C           1.9023   16.2128   -0.5642 C.ar    1  UNL1        0.0530
     10 C           1.7285   16.6103   -1.8935 C.ar    1  UNL1       -0.0389
     11 C           2.3363   15.9033   -2.9105 C.ar    1  UNL1       -0.0600
     12 C           3.1261   14.7974   -2.6287 C.ar    1  UNL1       -0.0616
     13 C           3.2988   14.3983   -1.3123 C.ar    1  UNL1       -0.0600
     14 C           2.6943   15.0960   -0.2852 C.ar    1  UNL1       -0.0389
     15 H           0.4122   19.0806    1.6784 H       1  UNL1        0.0637
     16 H          -1.9078   19.9335    1.5752 H       1  UNL1        0.0618
     17 H          -3.5915   18.7698    0.1884 H       1  UNL1        0.0618
     18 H          -2.9453   16.7487   -1.0735 H       1  UNL1        0.0618
     19 H          -0.6552   15.8838   -0.9490 H       1  UNL1        0.0637
     20 H           1.1264   17.4790   -2.1152 H       1  UNL1        0.0637
     21 H           2.2038   16.2216   -3.9344 H       1  UNL1        0.0618
     22 H           3.6012   14.2521   -3.4300 H       1  UNL1        0.0618
     23 H           3.9024   13.5307   -1.0861 H       1  UNL1        0.0618
     24 H           2.7930   14.7832    0.7447 H       1  UNL1        0.0637
@<TRIPOS>BOND
     1    21    11    1
     2    22    12    1
     3    11    12   ar
     4    11    10   ar
     5    12    13   ar
     6    20    10    1
     7    10     9   ar
     8    13    23    1
     9    13    14   ar
    10    18     7    1
    11    19     8    1
    12     9    14   ar
    13     9     2    1
    14     7     8   ar
    15     7     6   ar
    16     8     3   ar
    17    14    24    1
    18    17     6    1
    19     6     5   ar
    20     3     2    1
    21     3     4   ar
    22     2     1    1
    23     5     4   ar
    24     5    16    1
    25     4    15    1
