@<TRIPOS>MOLECULE
1
 24 25 0 0 0
SMALL
GASTEIGER

@<TRIPOS>ATOM
      1 N           5.5785    2.3173   15.7696 N.3     1  UNL1       -0.0117
      2 N           4.5472    2.2168   16.5886 N.pl3   1  UNL1       -0.2010
      3 C           3.4402    3.0622   16.4669 C.ar    1  UNL1        0.0530
      4 C           2.5511    3.2885   17.5251 C.ar    1  UNL1       -0.0389
      5 C           1.4744    4.1367   17.3616 C.ar    1  UNL1       -0.0600
      6 C           1.2641    4.7978   16.1614 C.ar    1  UNL1       -0.0616
      7 C           2.1757    4.6270   15.1308 C.ar    1  UNL1       -0.0600
      8 C           3.2523    3.7790   15.2784 C.ar    1  UNL1       -0.0389
      9 C           4.6518    1.3047   17.6566 C.ar    1  UNL1        0.0530
     10 C           3.5601    0.5549   18.1002 C.ar    1  UNL1       -0.0389
     11 C           3.7187   -0.3447   19.1364 C.ar    1  UNL1       -0.0600
     12 C           4.9580   -0.5317   19.7272 C.ar    1  UNL1       -0.0616
     13 C           6.0503    0.1890   19.2679 C.ar    1  UNL1       -0.0600
     14 C           5.9058    1.0961   18.2389 C.ar    1  UNL1       -0.0389
     15 H           2.7174    2.8251   18.4851 H       1  UNL1        0.0637
     16 H           0.7975    4.2950   18.1888 H       1  UNL1        0.0618
     17 H           0.4175    5.4569   16.0422 H       1  UNL1        0.0618
     18 H           2.0516    5.1681   14.2041 H       1  UNL1        0.0618
     19 H           3.9846    3.6742   14.4924 H       1  UNL1        0.0637
     20 H           2.5983    0.6689   17.6225 H       1  UNL1        0.0637
     21 H           2.8656   -0.9075   19.4880 H       1  UNL1        0.0618
     22 H           5.0713   -1.2334   20.5402 H       1  UNL1        0.0618
     23 H           7.0190    0.0467   19.7233 H       1  UNL1        0.0618
     24 H           6.7492    1.6610   17.8655 H       1  UNL1        0.0637
@<TRIPOS>BOND
     1    18     7    1
     2    19     8    1
     3     7     8   ar
     4     7     6   ar
     5     8     3   ar
     6     1     2    1
     7    17     6    1
     8     6     5   ar
     9     3     2    1
    10     3     4   ar
    11     2     9    1
    12     5     4   ar
    13     5    16    1
    14     4    15    1
    15    20    10    1
    16     9    10   ar
    17     9    14   ar
    18    24    14    1
    19    10    11   ar
    20    14    13   ar
    21    11    21    1
    22    11    12   ar
    23    13    23    1
    24    13    12   ar
    25    12    22    1
