@<TRIPOS>MOLECULE
1
 14 13 0 0 0
SMALL
GASTEIGER

@<TRIPOS>ATOM
      1 N           8.8027    1.1488    3.3205 N.3     1  UNL1       -0.1371
      2 C           9.3693    1.0713    2.0290 C.3     1  UNL1        0.0466
      3 C           8.5274    1.9257    1.0461 C.3     1  UNL1       -0.0443
      4 C           9.4117   -0.3870    1.5194 C.3     1  UNL1       -0.0443
      5 C          10.8169    1.6235    2.0433 C.3     1  UNL1       -0.0443
      6 H           8.9559    1.9096    0.0446 H       1  UNL1        0.0248
      7 H           8.4940    2.9553    1.4131 H       1  UNL1        0.0248
      8 H           7.5111    1.5304    1.0143 H       1  UNL1        0.0248
      9 H           9.8766   -0.4392    0.5370 H       1  UNL1        0.0248
     10 H           9.9804   -0.9995    2.2154 H       1  UNL1        0.0248
     11 H           8.4015   -0.7833    1.4595 H       1  UNL1        0.0248
     12 H          11.2440    1.6145    1.0426 H       1  UNL1        0.0248
     13 H          11.4381    1.0101    2.6936 H       1  UNL1        0.0248
     14 H          10.8122    2.6468    2.4193 H       1  UNL1        0.0248
@<TRIPOS>BOND
     1     6     3    1
     2     9     4    1
     3     8     3    1
     4    12     5    1
     5     3     7    1
     6     3     2    1
     7    11     4    1
     8     4     2    1
     9     4    10    1
    10     2     5    1
    11     2     1    1
    12     5    14    1
    13     5    13    1
