@<TRIPOS>MOLECULE
1
 14 13 0 0 0
SMALL
GASTEIGER

@<TRIPOS>ATOM
      1 N           8.0361   24.1999    2.6309 N.3     1  UNL1       -0.1371
      2 C           8.8872   24.4724    3.7173 C.3     1  UNL1        0.0466
      3 C          10.0446   23.4462    3.7920 C.3     1  UNL1       -0.0443
      4 C           9.4805   25.8916    3.5518 C.3     1  UNL1       -0.0443
      5 C           8.1111   24.4100    5.0512 C.3     1  UNL1       -0.0443
      6 H          10.6878   23.5275    2.9181 H       1  UNL1        0.0248
      7 H           9.6343   22.4387    3.8354 H       1  UNL1        0.0248
      8 H          10.6462   23.6175    4.6819 H       1  UNL1        0.0248
      9 H          10.0947   25.9371    2.6521 H       1  UNL1        0.0248
     10 H           8.6629   26.6030    3.4467 H       1  UNL1        0.0248
     11 H          10.0898   26.1588    4.4127 H       1  UNL1        0.0248
     12 H           7.6892   23.4158    5.1823 H       1  UNL1        0.0248
     13 H           7.2999   25.1307    5.0309 H       1  UNL1        0.0248
     14 H           8.7713   24.6285    5.8881 H       1  UNL1        0.0248
@<TRIPOS>BOND
     1     1     2    1
     2     9     4    1
     3     6     3    1
     4    10     4    1
     5     4     2    1
     6     4    11    1
     7     2     3    1
     8     2     5    1
     9     3     7    1
    10     3     8    1
    11    13     5    1
    12     5    12    1
    13     5    14    1
