@<TRIPOS>MOLECULE
1
 21 21 0 0 0
SMALL
GASTEIGER

@<TRIPOS>ATOM
      1 N           4.6205    4.2576   -4.7610 N.pl3   1  UNL1       -0.1288
      2 C           4.6552    4.6845   -6.0271 C.ar    1  UNL1        0.0782
      3 C           5.3504    5.8708   -6.3918 C.ar    1  UNL1       -0.0255
      4 C           5.3644    6.2914   -7.7065 C.ar    1  UNL1       -0.0540
      5 H           5.8975    7.2001   -7.9569 H       1  UNL1        0.0623
      6 C           4.7246    5.5813   -8.7153 C.ar    1  UNL1       -0.0498
      7 C           4.0481    4.4193   -8.3663 C.ar    1  UNL1       -0.0540
      8 H           3.5406    3.8507   -9.1353 H       1  UNL1        0.0623
      9 C           3.9955    3.9677   -7.0630 C.ar    1  UNL1       -0.0255
     10 C           6.0584    6.6688   -5.3343 C.3     1  UNL1       -0.0378
     11 H           5.9542    6.1638   -4.3661 H       1  UNL1        0.0278
     12 H           5.6414    7.6740   -5.2623 H       1  UNL1        0.0278
     13 H           7.1173    6.7665   -5.5749 H       1  UNL1        0.0278
     14 C           3.2490    2.7105   -6.7224 C.3     1  UNL1       -0.0378
     15 H           3.2940    2.5471   -5.6406 H       1  UNL1        0.0278
     16 H           3.6778    1.8489   -7.2360 H       1  UNL1        0.0278
     17 H           2.2051    2.7901   -7.0240 H       1  UNL1        0.0278
     18 C           4.7418    6.0724  -10.1327 C.3     1  UNL1       -0.0397
     19 H           5.6781    6.5806  -10.3556 H       1  UNL1        0.0278
     20 H           3.9283    6.7815  -10.2976 H       1  UNL1        0.0278
     21 H           4.6143    5.2476  -10.8308 H       1  UNL1        0.0278
@<TRIPOS>BOND
     1    21    18    1
     2    19    18    1
     3    20    18    1
     4    18     6    1
     5     8     7    1
     6     6     7   ar
     7     6     4   ar
     8     7     9   ar
     9     5     4    1
    10     4     3   ar
    11    16    14    1
    12     9    14    1
    13     9     2   ar
    14    17    14    1
    15    14    15    1
    16     3     2   ar
    17     3    10    1
    18     2     1    1
    19    13    10    1
    20    10    12    1
    21    10    11    1
