@<TRIPOS>MOLECULE
1
 23 22 0 0 0
SMALL
GASTEIGER

@<TRIPOS>ATOM
      1 N           3.3874    2.7885   -2.2108 N.3     1  UNL1        0.0000
      2 SI          2.2304    1.7503   -1.5732 Si      1  UNL1        0.0000
      3 C           1.3098    2.4663   -0.0437 C.3     1  UNL1        0.0000
      4 H           0.7564    3.3705   -0.2804 H       1  UNL1        0.0000
      5 H           2.0148    2.7067    0.7471 H       1  UNL1        0.0000
      6 H           0.6069    1.7463    0.3614 H       1  UNL1        0.0000
      7 C           3.0246    0.1141   -0.9456 C.3     1  UNL1        0.0000
      8 H           3.6848   -0.3160   -1.6940 H       1  UNL1        0.0000
      9 H           2.2763   -0.6307   -0.6948 H       1  UNL1        0.0000
     10 H           3.6159    0.2990   -0.0540 H       1  UNL1        0.0000
     11 C           0.9104    1.3041   -2.9235 C.3     1  UNL1        0.0000
     12 C          -0.3171    0.6057   -2.3444 C.3     1  UNL1        0.0000
     13 H          -1.0205    0.3413   -3.1365 H       1  UNL1        0.0000
     14 H          -0.8334    1.2521   -1.6378 H       1  UNL1        0.0000
     15 H          -0.0342   -0.3089   -1.8266 H       1  UNL1        0.0000
     16 C           0.4705    2.5864   -3.6281 C.3     1  UNL1        0.0000
     17 H          -0.1699    2.3660   -4.4837 H       1  UNL1        0.0000
     18 H           1.3450    3.1378   -3.9792 H       1  UNL1        0.0000
     19 H          -0.0890    3.2243   -2.9452 H       1  UNL1        0.0000
     20 C           1.5567    0.3879   -3.9600 C.3     1  UNL1        0.0000
     21 H           0.8766    0.1911   -4.7908 H       1  UNL1        0.0000
     22 H           1.8317   -0.5659   -3.5138 H       1  UNL1        0.0000
     23 H           2.4560    0.8580   -4.3543 H       1  UNL1        0.0000
@<TRIPOS>BOND
     1    21    20    1
     2    17    16    1
     3    23    20    1
     4    18    16    1
     5    20    22    1
     6    20    11    1
     7    16    19    1
     8    16    11    1
     9    13    12    1
    10    11    12    1
    11    11     2    1
    12    12    15    1
    13    12    14    1
    14     1     2    1
    15     8     7    1
    16     2     7    1
    17     2     3    1
    18     7     9    1
    19     7    10    1
    20     4     3    1
    21     3     6    1
    22     3     5    1
