@<TRIPOS>MOLECULE
1
 21 21 0 0 0
SMALL
GASTEIGER

@<TRIPOS>ATOM
      1 N           6.3194    4.1388   -2.1227 N.pl3   1  UNL1       -0.1288
      2 C           7.3071    4.1868   -1.2237 C.ar    1  UNL1        0.0782
      3 C           8.5262    4.8689   -1.4919 C.ar    1  UNL1       -0.0255
      4 C           9.5350    4.8949   -0.5499 C.ar    1  UNL1       -0.0540
      5 H          10.4514    5.4232   -0.7812 H       1  UNL1        0.0623
      6 C           9.4062    4.2650    0.6808 C.ar    1  UNL1       -0.0498
      7 C           8.2190    3.5928    0.9501 C.ar    1  UNL1       -0.0540
      8 H           8.1020    3.0952    1.9047 H       1  UNL1        0.0623
      9 C           7.1810    3.5398    0.0421 C.ar    1  UNL1       -0.0255
     10 C           8.6989    5.5716   -2.8076 C.3     1  UNL1       -0.0378
     11 H           9.6945    5.3979   -3.2141 H       1  UNL1        0.0278
     12 H           8.5701    6.6484   -2.6860 H       1  UNL1        0.0278
     13 H           7.9477    5.2169   -3.5141 H       1  UNL1        0.0278
     14 C           5.9193    2.8000    0.3888 C.3     1  UNL1       -0.0378
     15 H           6.1455    1.7770    0.6894 H       1  UNL1        0.0278
     16 H           5.2369    2.7791   -0.4737 H       1  UNL1        0.0278
     17 H           5.4129    3.2811    1.2265 H       1  UNL1        0.0278
     18 C          10.5177    4.2864    1.6877 C.3     1  UNL1       -0.0397
     19 H          10.1254    4.4328    2.6928 H       1  UNL1        0.0278
     20 H          11.2248    5.0831    1.4677 H       1  UNL1        0.0278
     21 H          11.0593    3.3389    1.6766 H       1  UNL1        0.0278
@<TRIPOS>BOND
     1    13    10    1
     2    11    10    1
     3    10    12    1
     4    10     3    1
     5     1     2    1
     6     3     2   ar
     7     3     4   ar
     8     2     9   ar
     9     5     4    1
    10     4     6   ar
    11    16    14    1
    12     9    14    1
    13     9     7   ar
    14    14    15    1
    15    14    17    1
    16     6     7   ar
    17     6    18    1
    18     7     8    1
    19    20    18    1
    20    21    18    1
    21    18    19    1
