@<TRIPOS>MOLECULE
6
 35 37 0 0 0
SMALL
GASTEIGER

@<TRIPOS>ATOM
      1 P           9.4940    2.4105    2.5530 P.3     1  UNL1        0.0527
      2 C           9.7764    2.7916    0.8005 C.ar    1  UNL1       -0.0032
      3 C           7.8551    1.6358    2.6988 C.ar    1  UNL1       -0.0032
      4 C          11.6799    1.5140    3.9708 C.ar    1  UNL1       -0.0526
      5 H          11.6261    2.4990    4.4140 H       1  UNL1        0.0624
      6 N           9.6529    3.6791    3.4862 N.3     1  UNL1       -0.1060
      7 C          10.5547    3.9080    0.5159 C.ar    1  UNL1       -0.0526
      8 H          10.9192    4.5190    1.3347 H       1  UNL1        0.0624
      9 C           9.2734    2.0006   -0.2252 C.ar    1  UNL1       -0.0526
     10 H           8.6601    1.1394    0.0027 H       1  UNL1        0.0624
     11 C          12.6543    0.5997    4.3307 C.ar    1  UNL1       -0.0611
     12 H          13.3928    0.8606    5.0740 H       1  UNL1        0.0618
     13 C          11.7377   -0.9916    2.7777 C.ar    1  UNL1       -0.0611
     14 H          11.7649   -1.9675    2.3155 H       1  UNL1        0.0618
     15 C           6.7838    2.1911    2.0063 C.ar    1  UNL1       -0.0526
     16 H           6.9610    3.0090    1.3197 H       1  UNL1        0.0624
     17 C           7.6434    0.6107    3.6136 C.ar    1  UNL1       -0.0526
     18 H           8.4816    0.2006    4.1616 H       1  UNL1        0.0624
     19 C          10.7324    1.1698    3.0170 C.ar    1  UNL1       -0.0032
     20 C           6.3632    0.1232    3.8138 C.ar    1  UNL1       -0.0611
     21 H           6.1954   -0.6753    4.5220 H       1  UNL1        0.0618
     22 C           9.5442    2.3374   -1.5398 C.ar    1  UNL1       -0.0611
     23 H           9.1484    1.7316   -2.3420 H       1  UNL1        0.0618
     24 C           5.2980    0.6625    3.1105 C.ar    1  UNL1       -0.0617
     25 H           4.3002    0.2807    3.2703 H       1  UNL1        0.0618
     26 C          10.7622   -0.0815    2.4141 C.ar    1  UNL1       -0.0526
     27 H          10.0207   -0.3362    1.6696 H       1  UNL1        0.0624
     28 C          12.6815   -0.6513    3.7352 C.ar    1  UNL1       -0.0617
     29 H          13.4413   -1.3656    4.0161 H       1  UNL1        0.0618
     30 C          10.3110    3.4550   -1.8270 C.ar    1  UNL1       -0.0617
     31 H          10.5102    3.7189   -2.8552 H       1  UNL1        0.0618
     32 C          10.8154    4.2397   -0.8012 C.ar    1  UNL1       -0.0611
     33 H          11.4062    5.1140   -1.0293 H       1  UNL1        0.0618
     34 C           5.5083    1.6963    2.2100 C.ar    1  UNL1       -0.0611
     35 H           4.6753    2.1167    1.6656 H       1  UNL1        0.0618
@<TRIPOS>BOND
     1    31    30    1
     2    23    22    1
     3    30    22   ar
     4    30    32   ar
     5    22     9   ar
     6    33    32    1
     7    32     7   ar
     8     9    10    1
     9     9     2   ar
    10     7     2   ar
    11     7     8    1
    12     2     1    1
    13    16    15    1
    14    35    34    1
    15    27    26    1
    16    15    34   ar
    17    15     3   ar
    18    34    24   ar
    19    14    13    1
    20    26    13   ar
    21    26    19   ar
    22     1     3    1
    23     1    19    1
    24     1     6    1
    25     3    17   ar
    26    13    28   ar
    27    19     4   ar
    28    24    25    1
    29    24    20   ar
    30    17    20   ar
    31    17    18    1
    32    28    29    1
    33    28    11   ar
    34    20    21    1
    35     4    11   ar
    36     4     5    1
    37    11    12    1
