@<TRIPOS>MOLECULE
1
 12 12 0 0 0
SMALL
GASTEIGER

@<TRIPOS>ATOM
      1 N          14.9401    0.9595    5.0185 N.pl3   1  UNL1       -0.1294
      2 C          14.3833    1.1888    6.2210 C.ar    1  UNL1        0.0724
      3 C          15.1600    1.4913    7.3510 C.ar    1  UNL1       -0.0372
      4 H          16.2361    1.5425    7.2420 H       1  UNL1        0.0637
      5 C          14.5598    1.7157    8.5727 C.ar    1  UNL1       -0.0599
      6 H          15.1723    1.9470    9.4326 H       1  UNL1        0.0618
      7 C          13.1820    1.6468    8.7043 C.ar    1  UNL1       -0.0616
      8 H          12.7185    1.8230    9.6633 H       1  UNL1        0.0618
      9 C          12.4026    1.3498    7.5956 C.ar    1  UNL1       -0.0599
     10 H          11.3278    1.2944    7.6930 H       1  UNL1        0.0618
     11 C          12.9869    1.1228    6.3685 C.ar    1  UNL1       -0.0372
     12 H          12.3988    0.8894    5.4894 H       1  UNL1        0.0637
@<TRIPOS>BOND
     1     1     2    1
     2    12    11    1
     3     2    11   ar
     4     2     3   ar
     5    11     9   ar
     6     4     3    1
     7     3     5   ar
     8     9    10    1
     9     9     7   ar
    10     5     7   ar
    11     5     6    1
    12     7     8    1
