@<TRIPOS>MOLECULE
1
 12 12 0 0 0
SMALL
GASTEIGER

@<TRIPOS>ATOM
      1 N          -0.5031    6.6746    2.1271 N.pl3   1  UNL1       -0.1294
      2 C          -1.6770    6.2965    1.5915 C.ar    1  UNL1        0.0724
      3 C          -1.7720    5.8154    0.2752 C.ar    1  UNL1       -0.0372
      4 H          -0.8681    5.7464   -0.3150 H       1  UNL1        0.0637
      5 C          -2.9907    5.4364   -0.2480 C.ar    1  UNL1       -0.0599
      6 H          -3.0445    5.0681   -1.2629 H       1  UNL1        0.0618
      7 C          -4.1442    5.5248    0.5153 C.ar    1  UNL1       -0.0616
      8 H          -5.0957    5.2287    0.0995 H       1  UNL1        0.0618
      9 C          -4.0663    5.9927    1.8189 C.ar    1  UNL1       -0.0599
     10 H          -4.9618    6.0584    2.4208 H       1  UNL1        0.0618
     11 C          -2.8551    6.3712    2.3564 C.ar    1  UNL1       -0.0372
     12 H          -2.7758    6.7280    3.3755 H       1  UNL1        0.0637
@<TRIPOS>BOND
     1     6     5    1
     2     4     3    1
     3     5     3   ar
     4     5     7   ar
     5     8     7    1
     6     3     2   ar
     7     7     9   ar
     8     2     1    1
     9     2    11   ar
    10     9    11   ar
    11     9    10    1
    12    11    12    1
