@<TRIPOS>MOLECULE
2
 14 13 0 0 0
SMALL
GASTEIGER

@<TRIPOS>ATOM
      1 SI          7.2271    1.9685   13.9393 Si      1  UNL1        0.0000
      2 N           6.6361    2.7166   15.3203 N.3     1  UNL1        0.0000
      3 C           6.0935    2.1514   12.3932 C.3     1  UNL1        0.0000
      4 C           8.9008    2.7754   13.4029 C.3     1  UNL1        0.0000
      5 C           7.6080    0.1061   14.2027 C.3     1  UNL1        0.0000
      6 H           6.3155    1.3968   11.6450 H       1  UNL1        0.0000
      7 H           6.2168    3.1230   11.9219 H       1  UNL1        0.0000
      8 H           5.0472    2.0568   12.6656 H       1  UNL1        0.0000
      9 H           9.2869    2.2910   12.5125 H       1  UNL1        0.0000
     10 H           9.6596    2.6851   14.1757 H       1  UNL1        0.0000
     11 H           8.7886    3.8326   13.1712 H       1  UNL1        0.0000
     12 H           7.8082   -0.4029   13.2650 H       1  UNL1        0.0000
     13 H           8.4753   -0.0256   14.8432 H       1  UNL1        0.0000
     14 H           6.7709   -0.3902   14.6834 H       1  UNL1        0.0000
@<TRIPOS>BOND
     1     6     3    1
     2     7     3    1
     3     3     8    1
     4     3     1    1
     5     9     4    1
     6    11     4    1
     7    12     5    1
     8     4     1    1
     9     4    10    1
    10     1     5    1
    11     1     2    1
    12     5    14    1
    13     5    13    1
