@<TRIPOS>MOLECULE
2
 23 22 0 0 0
SMALL
GASTEIGER

@<TRIPOS>ATOM
      1 SI          5.2394    7.3721    9.1709 Si      1  UNL1        0.0000
      2 N           5.3352    6.2394   10.4119 N.3     1  UNL1        0.0000
      3 C           3.9636    6.7975    7.8230 C.3     1  UNL1        0.0000
      4 C           4.4899    5.5396    7.1385 C.3     1  UNL1        0.0000
      5 H           4.7033    4.7788    7.8905 H       1  UNL1        0.0000
      6 H           5.4024    5.7501    6.5850 H       1  UNL1        0.0000
      7 H           3.7535    5.1399    6.4373 H       1  UNL1        0.0000
      8 C           3.6850    7.8658    6.7679 C.3     1  UNL1        0.0000
      9 H           2.9876    7.4917    6.0156 H       1  UNL1        0.0000
     10 H           4.6018    8.1599    6.2615 H       1  UNL1        0.0000
     11 H           3.2471    8.7516    7.2224 H       1  UNL1        0.0000
     12 C           2.6587    6.4313    8.5221 C.3     1  UNL1        0.0000
     13 H           1.9303    6.0288    7.8145 H       1  UNL1        0.0000
     14 H           2.2235    7.3047    9.0009 H       1  UNL1        0.0000
     15 H           2.8613    5.6787    9.2861 H       1  UNL1        0.0000
     16 C           6.9428    7.6750    8.3240 C.3     1  UNL1        0.0000
     17 H           7.6443    6.9031    8.6280 H       1  UNL1        0.0000
     18 H           7.3626    8.6338    8.6105 H       1  UNL1        0.0000
     19 H           6.8801    7.6592    7.2412 H       1  UNL1        0.0000
     20 C           4.6570    9.0847    9.8406 C.3     1  UNL1        0.0000
     21 H           3.6972    9.0095   10.3423 H       1  UNL1        0.0000
     22 H           4.5609    9.8159    9.0457 H       1  UNL1        0.0000
     23 H           5.3713    9.4798   10.5573 H       1  UNL1        0.0000
@<TRIPOS>BOND
     1     9     8    1
     2    10     8    1
     3     7     4    1
     4     6     4    1
     5     8    11    1
     6     8     3    1
     7     4     3    1
     8     4     5    1
     9    19    16    1
    10    13    12    1
    11     3    12    1
    12     3     1    1
    13    16    18    1
    14    16    17    1
    15    16     1    1
    16    12    14    1
    17    12    15    1
    18    22    20    1
    19     1    20    1
    20     1     2    1
    21    20    21    1
    22    20    23    1
