@<TRIPOS>MOLECULE
2
 23 22 0 0 0
SMALL
GASTEIGER

@<TRIPOS>ATOM
      1 SI          8.3384   15.7513    5.1685 Si      1  UNL1        0.0000
      2 N           8.0536   16.8728    6.3967 N.3     1  UNL1        0.0000
      3 C           7.7402   13.9848    5.6458 C.3     1  UNL1        0.0000
      4 H           8.5110   13.4110    6.1479 H       1  UNL1        0.0000
      5 H           7.4177   13.4175    4.7790 H       1  UNL1        0.0000
      6 H           6.8939   14.0718    6.3229 H       1  UNL1        0.0000
      7 C           7.3650   16.1339    3.5482 C.3     1  UNL1        0.0000
      8 H           6.3003   15.9793    3.7001 H       1  UNL1        0.0000
      9 H           7.6720   15.4810    2.7380 H       1  UNL1        0.0000
     10 H           7.5123   17.1564    3.2197 H       1  UNL1        0.0000
     11 C          10.2263   15.6981    4.7303 C.3     1  UNL1        0.0000
     12 C          11.0129   15.3049    5.9779 C.3     1  UNL1        0.0000
     13 H          10.7189   15.9360    6.8147 H       1  UNL1        0.0000
     14 H          12.0865   15.4172    5.8171 H       1  UNL1        0.0000
     15 H          10.8179   14.2685    6.2406 H       1  UNL1        0.0000
     16 C          10.5422   14.7064    3.6126 C.3     1  UNL1        0.0000
     17 H          10.2072   13.7055    3.8763 H       1  UNL1        0.0000
     18 H          11.6172   14.6673    3.4272 H       1  UNL1        0.0000
     19 H          10.0522   14.9975    2.6863 H       1  UNL1        0.0000
     20 C          10.6762   17.0918    4.3019 C.3     1  UNL1        0.0000
     21 H          10.1583   17.3980    3.3960 H       1  UNL1        0.0000
     22 H          11.7498   17.1131    4.1063 H       1  UNL1        0.0000
     23 H          10.4541   17.8079    5.0903 H       1  UNL1        0.0000
@<TRIPOS>BOND
     1    19    16    1
     2     9     7    1
     3    10     7    1
     4    21    20    1
     5    18    16    1
     6     7     8    1
     7     7     1    1
     8    16    17    1
     9    16    11    1
    10    22    20    1
    11    20    11    1
    12    20    23    1
    13    11     1    1
    14    11    12    1
    15     5     3    1
    16     1     3    1
    17     1     2    1
    18     3     4    1
    19     3     6    1
    20    14    12    1
    21    12    15    1
    22    12    13    1
