@<TRIPOS>MOLECULE
1
 12 12 0 0 0
SMALL
GASTEIGER

@<TRIPOS>ATOM
      1 N           3.3886    1.9388    4.3756 N.pl3   1  UNL1       -0.1294
      2 C           4.1167    1.5183    5.4360 C.ar    1  UNL1        0.0724
      3 C           4.9990    0.4262    5.3684 C.ar    1  UNL1       -0.0372
      4 H           5.1030   -0.1032    4.4326 H       1  UNL1        0.0637
      5 C           5.7248    0.0429    6.4770 C.ar    1  UNL1       -0.0599
      6 H           6.4007   -0.7973    6.4039 H       1  UNL1        0.0618
      7 C           5.5945    0.7194    7.6794 C.ar    1  UNL1       -0.0616
      8 H           6.1652    0.4109    8.5422 H       1  UNL1        0.0618
      9 C           4.7246    1.7967    7.7653 C.ar    1  UNL1       -0.0599
     10 H           4.6178    2.3289    8.7000 H       1  UNL1        0.0618
     11 C           3.9964    2.1952    6.6667 C.ar    1  UNL1       -0.0372
     12 H           3.3104    3.0337    6.7124 H       1  UNL1        0.0637
@<TRIPOS>BOND
     1     1     2    1
     2     4     3    1
     3     3     2   ar
     4     3     5   ar
     5     2    11   ar
     6     6     5    1
     7     5     7   ar
     8    11    12    1
     9    11     9   ar
    10     7     9   ar
    11     7     8    1
    12     9    10    1
