@<TRIPOS>MOLECULE
1
 6 5 0 0 0
SMALL
GASTEIGER

@<TRIPOS>ATOM
      1 N           0.2457    3.2905    3.9572 N.3     1  UNL1       -0.1324
      2 C           0.2996    4.4429    4.0142 C.3     1  UNL1        0.0975
      3 C           0.3537    5.8759    4.0851 C.3     1  UNL1       -0.0400
      4 H           1.2361    6.1951    4.6408 H       1  UNL1        0.0250
      5 H           0.3901    6.2879    3.0759 H       1  UNL1        0.0250
      6 H          -0.5397    6.2442    4.5890 H       1  UNL1        0.0250
@<TRIPOS>BOND
     1     5     3    1
     2     1     2    1
     3     2     3    1
     4     3     6    1
     5     3     4    1
