@<TRIPOS>MOLECULE
1
 6 5 0 0 0
SMALL
GASTEIGER

@<TRIPOS>ATOM
      1 N           0.3200   -0.5492    3.3623 N.3     1  UNL1       -0.1324
      2 C           0.4139   -1.6623    3.0546 C.3     1  UNL1        0.0975
      3 C           0.4921   -3.0486    2.6803 C.3     1  UNL1       -0.0400
      4 H           0.3312   -3.6793    3.5557 H       1  UNL1        0.0250
      5 H          -0.2598   -3.2790    1.9239 H       1  UNL1        0.0250
      6 H           1.4814   -3.2589    2.2748 H       1  UNL1        0.0250
@<TRIPOS>BOND
     1     5     3    1
     2     6     3    1
     3     3     2    1
     4     3     4    1
     5     2     1    1
