@<TRIPOS>MOLECULE
2
 35 37 0 0 0
SMALL
GASTEIGER

@<TRIPOS>ATOM
      1 SI          6.2475    8.4961    2.3655 Si      1  UNL1        0.0000
      2 N           4.9982    8.4071    3.5212 N.3     1  UNL1        0.0000
      3 C           7.0659   10.2087    2.4807 C.ar    1  UNL1        0.0000
      4 C           7.6725   10.8243    1.3923 C.ar    1  UNL1        0.0000
      5 H           7.6760   10.3222    0.4347 H       1  UNL1        0.0000
      6 C           8.2633   12.0703    1.5155 C.ar    1  UNL1        0.0000
      7 H           8.7307   12.5357    0.6585 H       1  UNL1        0.0000
      8 C           8.2565   12.7223    2.7370 C.ar    1  UNL1        0.0000
      9 H           8.7190   13.6944    2.8350 H       1  UNL1        0.0000
     10 C           7.6513   12.1238    3.8302 C.ar    1  UNL1        0.0000
     11 H           7.6430   12.6287    4.7866 H       1  UNL1        0.0000
     12 C           7.0602   10.8804    3.6990 C.ar    1  UNL1        0.0000
     13 H           6.5813   10.4089    4.5478 H       1  UNL1        0.0000
     14 C           7.5333    7.1413    2.7224 C.ar    1  UNL1        0.0000
     15 C           7.1196    5.9526    3.3148 C.ar    1  UNL1        0.0000
     16 H           6.0739    5.8363    3.5675 H       1  UNL1        0.0000
     17 C           8.0196    4.9361    3.5786 C.ar    1  UNL1        0.0000
     18 H           7.6779    4.0162    4.0331 H       1  UNL1        0.0000
     19 C           9.3580    5.0955    3.2584 C.ar    1  UNL1        0.0000
     20 H          10.0651    4.3039    3.4634 H       1  UNL1        0.0000
     21 C           9.7874    6.2765    2.6766 C.ar    1  UNL1        0.0000
     22 H          10.8320    6.4072    2.4293 H       1  UNL1        0.0000
     23 C           8.8801    7.2880    2.4118 C.ar    1  UNL1        0.0000
     24 H           9.2220    8.2099    1.9620 H       1  UNL1        0.0000
     25 C           5.5135    8.2424    0.6301 C.ar    1  UNL1        0.0000
     26 C           4.1939    8.6124    0.3919 C.ar    1  UNL1        0.0000
     27 H           3.6178    9.0284    1.2081 H       1  UNL1        0.0000
     28 C           3.6232    8.4538   -0.8579 C.ar    1  UNL1        0.0000
     29 H           2.5977    8.7531   -1.0259 H       1  UNL1        0.0000
     30 C           4.3659    7.9130   -1.8949 C.ar    1  UNL1        0.0000
     31 H           3.9238    7.7865   -2.8732 H       1  UNL1        0.0000
     32 C           5.6781    7.5314   -1.6715 C.ar    1  UNL1        0.0000
     33 H           6.2603    7.1050   -2.4770 H       1  UNL1        0.0000
     34 C           6.2438    7.6966   -0.4188 C.ar    1  UNL1        0.0000
     35 H           7.2675    7.3924   -0.2490 H       1  UNL1        0.0000
@<TRIPOS>BOND
     1    31    30    1
     2    33    32    1
     3    30    32   ar
     4    30    28   ar
     5    32    34   ar
     6    29    28    1
     7    28    26   ar
     8    34    35    1
     9    34    25   ar
    10    26    25   ar
    11    26    27    1
    12     5     4    1
    13    25     1    1
    14     7     6    1
    15     4     6   ar
    16     4     3   ar
    17     6     8   ar
    18    24    23    1
    19     1     3    1
    20     1    14    1
    21     1     2    1
    22    23    21   ar
    23    23    14   ar
    24    22    21    1
    25     3    12   ar
    26    21    19   ar
    27    14    15   ar
    28     8     9    1
    29     8    10   ar
    30    19    20    1
    31    19    17   ar
    32    15    16    1
    33    15    17   ar
    34    17    18    1
    35    12    10   ar
    36    12    13    1
    37    10    11    1
