@<TRIPOS>MOLECULE
2
 14 13 0 0 0
SMALL
GASTEIGER

@<TRIPOS>ATOM
      1 SI         16.4598   11.8053    8.6337 Si      1  UNL1        0.0000
      2 N          15.5650   12.1633   10.0504 N.3     1  UNL1        0.0000
      3 C          15.2619   11.5570    7.1440 C.3     1  UNL1        0.0000
      4 H          14.4593   10.8699    7.3911 H       1  UNL1        0.0000
      5 H          15.7914   11.1548    6.2862 H       1  UNL1        0.0000
      6 H          14.8135   12.4971    6.8383 H       1  UNL1        0.0000
      7 C          17.5631   10.2466    8.7927 C.3     1  UNL1        0.0000
      8 H          18.5220   10.5099    9.2247 H       1  UNL1        0.0000
      9 H          17.7499    9.7920    7.8244 H       1  UNL1        0.0000
     10 H          17.1057    9.5010    9.4316 H       1  UNL1        0.0000
     11 C          17.6481   13.2282    8.1425 C.3     1  UNL1        0.0000
     12 H          17.1147   14.1519    7.9464 H       1  UNL1        0.0000
     13 H          18.2108   12.9725    7.2501 H       1  UNL1        0.0000
     14 H          18.3602   13.4107    8.9413 H       1  UNL1        0.0000
@<TRIPOS>BOND
     1     5     3    1
     2     6     3    1
     3     3     4    1
     4     3     1    1
     5    13    11    1
     6     9     7    1
     7    12    11    1
     8    11     1    1
     9    11    14    1
    10     1     7    1
    11     1     2    1
    12     7     8    1
    13     7    10    1
