@<TRIPOS>MOLECULE
1
 3 2 0 0 0
SMALL
GASTEIGER

@<TRIPOS>ATOM
      1 N           2.9978    4.9582    2.7939 N.2     1  UNL1        0.0698
      2 N           3.6120    5.9495    2.8609 N.2     1  UNL1       -0.1395
      3 N           4.1816    6.9353    2.8575 N.2     1  UNL1        0.0698
@<TRIPOS>BOND
     1     1     2    2
     2     3     2    2
