@<TRIPOS>MOLECULE
1
 18 18 0 0 0
SMALL
GASTEIGER

@<TRIPOS>ATOM
      1 N           3.9387    1.9692    4.4704 N.pl3   1  UNL1       -0.1288
      2 C           4.6889    1.7195    3.3977 C.ar    1  UNL1        0.0782
      3 C           4.9539    0.3941    2.9685 C.ar    1  UNL1       -0.0257
      4 C           5.6922    0.1811    1.8183 C.ar    1  UNL1       -0.0570
      5 C           6.1888    1.2375    1.0742 C.ar    1  UNL1       -0.0611
      6 C           5.9642    2.5356    1.5047 C.ar    1  UNL1       -0.0570
      7 C           5.2363    2.7949    2.6493 C.ar    1  UNL1       -0.0257
      8 C           5.0360    4.1960    3.1390 C.3     1  UNL1       -0.0378
      9 C           4.4602   -0.7704    3.7763 C.3     1  UNL1       -0.0378
     10 H           5.8822   -0.8349    1.4995 H       1  UNL1        0.0621
     11 H           6.7560    1.0519    0.1741 H       1  UNL1        0.0618
     12 H           6.3687    3.3647    0.9398 H       1  UNL1        0.0621
     13 H           4.0011    4.3367    3.4576 H       1  UNL1        0.0278
     14 H           5.2812    4.9176    2.3634 H       1  UNL1        0.0278
     15 H           5.6818    4.3795    4.0000 H       1  UNL1        0.0278
     16 H           5.2701   -1.1740    4.3858 H       1  UNL1        0.0278
     17 H           4.1066   -1.5670    3.1235 H       1  UNL1        0.0278
     18 H           3.6582   -0.4516    4.4444 H       1  UNL1        0.0278
@<TRIPOS>BOND
     1    11     5    1
     2    12     6    1
     3     5     6   ar
     4     5     4   ar
     5    10     4    1
     6     6     7   ar
     7     4     3   ar
     8    14     8    1
     9     7     8    1
    10     7     2   ar
    11     3     2   ar
    12     3     9    1
    13    17     9    1
    14     8    13    1
    15     8    15    1
    16     2     1    1
    17     9    16    1
    18     9    18    1
