@<TRIPOS>MOLECULE
1
 66 68 0 0 0
SMALL
GASTEIGER

@<TRIPOS>ATOM
      1 N           2.2935    4.3887    8.9508 N.3     1  UNL1       -0.0877
      2 N           1.9370    5.0533    6.7107 N.pl3   1  UNL1       -0.2640
      3 N           2.0746    6.6526    8.2241 N.pl3   1  UNL1       -0.2640
      4 C           2.1284    5.2710    8.0754 C.3     1  UNL1        0.2542
      5 C           1.7826    6.2664    6.0664 C.2     1  UNL1        0.0144
      6 C           1.8677    7.2397    6.9903 C.2     1  UNL1        0.0144
      7 C           2.2548    7.3533    9.4413 C.ar    1  UNL1        0.0436
      8 C           1.1685    7.5070   10.3053 C.ar    1  UNL1       -0.0231
      9 C           1.3593    8.2217   11.4803 C.ar    1  UNL1       -0.0565
     10 C           2.5922    8.7650   11.7835 C.ar    1  UNL1       -0.0611
     11 C           3.6621    8.5900   10.9256 C.ar    1  UNL1       -0.0565
     12 C           3.5136    7.8853    9.7403 C.ar    1  UNL1       -0.0231
     13 C           1.9420    3.7688    6.1206 C.ar    1  UNL1        0.0436
     14 C           0.7328    3.0803    5.9773 C.ar    1  UNL1       -0.0231
     15 C           0.7639    1.8022    5.4372 C.ar    1  UNL1       -0.0565
     16 C           1.9589    1.2326    5.0384 C.ar    1  UNL1       -0.0611
     17 C           3.1448    1.9285    5.1808 C.ar    1  UNL1       -0.0565
     18 C           3.1590    3.2060    5.7259 C.ar    1  UNL1       -0.0231
     19 C           4.6866    7.6386    8.8219 C.3     1  UNL1       -0.0197
     20 C           5.4413    6.4016    9.3188 C.3     1  UNL1       -0.0586
     21 C           5.6259    8.8403    8.7151 C.3     1  UNL1       -0.0586
     22 C          -0.1725    6.8875    9.9921 C.3     1  UNL1       -0.0197
     23 C          -1.3001    7.9202   10.0454 C.3     1  UNL1       -0.0586
     24 C          -0.4330    5.7317   10.9611 C.3     1  UNL1       -0.0586
     25 C           4.4577    3.9522    5.9185 C.3     1  UNL1       -0.0197
     26 C           5.2852    3.9936    4.6323 C.3     1  UNL1       -0.0586
     27 C           5.2493    3.3146    7.0633 C.3     1  UNL1       -0.0586
     28 C          -0.5611    3.7045    6.4463 C.3     1  UNL1       -0.0197
     29 C          -0.9009    3.1693    7.8404 C.3     1  UNL1       -0.0586
     30 C          -1.7163    3.4672    5.4732 C.3     1  UNL1       -0.0586
     31 H           1.6256    6.3181    5.0082 H       1  UNL1        0.0797
     32 H           1.7933    8.3033    6.8891 H       1  UNL1        0.0797
     33 H           0.5377    8.3522   12.1675 H       1  UNL1        0.0621
     34 H           2.7240    9.3215   12.7000 H       1  UNL1        0.0618
     35 H           4.6234    9.0009   11.1884 H       1  UNL1        0.0621
     36 H          -0.1519    1.2419    5.3270 H       1  UNL1        0.0621
     37 H           1.9661    0.2363    4.6200 H       1  UNL1        0.0618
     38 H           4.0705    1.4677    4.8706 H       1  UNL1        0.0621
     39 H           4.3069    7.4277    7.8165 H       1  UNL1        0.0344
     40 H           6.2625    6.1651    8.6456 H       1  UNL1        0.0235
     41 H           4.7702    5.5425    9.3791 H       1  UNL1        0.0235
     42 H           5.8481    6.5786   10.3118 H       1  UNL1        0.0235
     43 H           6.3458    8.6733    7.9167 H       1  UNL1        0.0235
     44 H           6.1811    8.9885    9.6372 H       1  UNL1        0.0235
     45 H           5.0684    9.7479    8.4923 H       1  UNL1        0.0235
     46 H          -0.1438    6.4778    8.9773 H       1  UNL1        0.0344
     47 H          -1.0836    8.7569    9.3840 H       1  UNL1        0.0235
     48 H          -1.4337    8.3048   11.0529 H       1  UNL1        0.0235
     49 H          -2.2367    7.4649    9.7301 H       1  UNL1        0.0235
     50 H          -0.5026    6.0988   11.9822 H       1  UNL1        0.0235
     51 H           0.3849    5.0067   10.9088 H       1  UNL1        0.0235
     52 H          -1.3671    5.2323   10.7105 H       1  UNL1        0.0235
     53 H           4.2319    4.9845    6.2025 H       1  UNL1        0.0344
     54 H           4.6962    4.3962    3.8106 H       1  UNL1        0.0235
     55 H           5.6331    3.0026    4.3526 H       1  UNL1        0.0235
     56 H           6.1565    4.6288    4.7752 H       1  UNL1        0.0235
     57 H           6.1578    3.8821    7.2518 H       1  UNL1        0.0235
     58 H           5.5268    2.2930    6.8109 H       1  UNL1        0.0235
     59 H           4.6464    3.3073    7.9783 H       1  UNL1        0.0235
     60 H          -0.4137    4.7867    6.5271 H       1  UNL1        0.0344
     61 H          -0.0714    3.3565    8.5247 H       1  UNL1        0.0235
     62 H          -1.0883    2.0972    7.8002 H       1  UNL1        0.0235
     63 H          -1.7911    3.6604    8.2286 H       1  UNL1        0.0235
     64 H          -2.5755    4.0650    5.7701 H       1  UNL1        0.0235
     65 H          -2.0223    2.4241    5.4653 H       1  UNL1        0.0235
     66 H          -1.4306    3.7524    4.4629 H       1  UNL1        0.0235
@<TRIPOS>BOND
     1    54    26    1
     2    55    26    1
     3    66    30    1
     4    37    16    1
     5    26    56    1
     6    26    25    1
     7    38    17    1
     8    31     5    1
     9    16    17   ar
    10    16    15   ar
    11    17    18   ar
    12    36    15    1
    13    15    14   ar
    14    65    30    1
    15    30    64    1
    16    30    28    1
    17    18    25    1
    18    18    13   ar
    19    25    53    1
    20    25    27    1
    21    14    13   ar
    22    14    28    1
    23     5     2    1
    24     5     6    2
    25    13     2    1
    26    28    60    1
    27    28    29    1
    28     2     4    1
    29    58    27    1
    30    32     6    1
    31     6     3    1
    32    27    57    1
    33    27    59    1
    34    62    29    1
    35    39    19    1
    36    29    63    1
    37    29    61    1
    38    43    21    1
    39     4     3    1
    40     4     1    1
    41     3     7    1
    42    45    21    1
    43    40    20    1
    44    21    19    1
    45    21    44    1
    46    19    20    1
    47    19    12    1
    48    46    22    1
    49    20    41    1
    50    20    42    1
    51    47    23    1
    52     7    12   ar
    53     7     8   ar
    54    49    23    1
    55    12    11   ar
    56    22    23    1
    57    22     8    1
    58    22    24    1
    59    23    48    1
    60     8     9   ar
    61    52    24    1
    62    51    24    1
    63    11    35    1
    64    11    10   ar
    65    24    50    1
    66     9    10   ar
    67     9    33    1
    68    10    34    1
