@<TRIPOS>MOLECULE
1
 66 68 0 0 0
SMALL
GASTEIGER

@<TRIPOS>ATOM
      1 N           1.3112    2.2095    5.1643 N.3     1  UNL1       -0.0877
      2 N           0.1273    2.5999    3.1271 N.pl3   1  UNL1       -0.2640
      3 N          -0.7924    1.2655    4.6202 N.pl3   1  UNL1       -0.2640
      4 C           0.3286    2.0459    4.3840 C.3     1  UNL1        0.2542
      5 C          -1.0967    2.1936    2.6412 C.2     1  UNL1        0.0144
      6 C          -1.6597    1.3784    3.5511 C.2     1  UNL1        0.0144
      7 C          -1.0749    0.5653    5.8211 C.ar    1  UNL1        0.0436
      8 C          -1.9956    1.1123    6.7199 C.ar    1  UNL1       -0.0231
      9 C          -2.2826    0.4042    7.8802 C.ar    1  UNL1       -0.0565
     10 C          -1.6703   -0.8055    8.1386 C.ar    1  UNL1       -0.0611
     11 C          -0.7616   -1.3334    7.2396 C.ar    1  UNL1       -0.0565
     12 C          -0.4431   -0.6606    6.0683 C.ar    1  UNL1       -0.0231
     13 C           0.9653    3.5591    2.5056 C.ar    1  UNL1        0.0436
     14 C           1.8655    3.1858    1.5042 C.ar    1  UNL1       -0.0231
     15 C           2.6215    4.1901    0.9065 C.ar    1  UNL1       -0.0565
     16 C           2.5035    5.5102    1.2896 C.ar    1  UNL1       -0.0611
     17 C           1.6085    5.8613    2.2818 C.ar    1  UNL1       -0.0565
     18 C           0.8188    4.8989    2.8931 C.ar    1  UNL1       -0.0231
     19 C           0.5145   -1.2371    5.0501 C.3     1  UNL1       -0.0197
     20 C          -0.2846   -1.8709    3.9046 C.3     1  UNL1       -0.0586
     21 C           1.4766   -2.2731    5.6282 C.3     1  UNL1       -0.0586
     22 C          -2.6960    2.4236    6.4440 C.3     1  UNL1       -0.0197
     23 C          -4.1782    2.1734    6.1512 C.3     1  UNL1       -0.0586
     24 C          -2.5395    3.4037    7.6075 C.3     1  UNL1       -0.0586
     25 C          -0.1959    5.3113    3.9360 C.3     1  UNL1       -0.0197
     26 C           0.5158    5.7801    5.2056 C.3     1  UNL1       -0.0586
     27 C          -1.1371    6.3918    3.3974 C.3     1  UNL1       -0.0586
     28 C           2.0454    1.7922    0.9422 C.3     1  UNL1       -0.0197
     29 C           1.7877    0.6359    1.9051 C.3     1  UNL1       -0.0586
     30 C           1.1760    1.6425   -0.3132 C.3     1  UNL1       -0.0586
     31 H          -1.4598    2.5313    1.6921 H       1  UNL1        0.0797
     32 H          -2.5987    0.8639    3.5394 H       1  UNL1        0.0797
     33 H          -2.9927    0.8027    8.5883 H       1  UNL1        0.0621
     34 H          -1.9039   -1.3440    9.0454 H       1  UNL1        0.0618
     35 H          -0.2959   -2.2795    7.4595 H       1  UNL1        0.0621
     36 H           3.3224    3.9199    0.1307 H       1  UNL1        0.0621
     37 H           3.1072    6.2688    0.8139 H       1  UNL1        0.0618
     38 H           1.5179    6.8958    2.5752 H       1  UNL1        0.0621
     39 H           1.1196   -0.4127    4.6531 H       1  UNL1        0.0344
     40 H          -0.9358   -1.1455    3.4243 H       1  UNL1        0.0235
     41 H          -0.8998   -2.6850    4.2844 H       1  UNL1        0.0235
     42 H           0.3945   -2.2701    3.1554 H       1  UNL1        0.0235
     43 H           2.2109   -2.5404    4.8725 H       1  UNL1        0.0235
     44 H           0.9532   -3.1814    5.9196 H       1  UNL1        0.0235
     45 H           2.0059   -1.8706    6.4882 H       1  UNL1        0.0235
     46 H          -2.2479    2.8884    5.5605 H       1  UNL1        0.0344
     47 H          -4.6693    1.7308    7.0144 H       1  UNL1        0.0235
     48 H          -4.2975    1.4963    5.3083 H       1  UNL1        0.0235
     49 H          -4.6773    3.1104    5.9135 H       1  UNL1        0.0235
     50 H          -1.4892    3.5345    7.8527 H       1  UNL1        0.0235
     51 H          -3.0601    3.0515    8.4941 H       1  UNL1        0.0235
     52 H          -2.9554    4.3714    7.3335 H       1  UNL1        0.0235
     53 H          -0.8104    4.4455    4.2011 H       1  UNL1        0.0344
     54 H          -0.2115    6.0452    5.9703 H       1  UNL1        0.0235
     55 H           1.1364    6.6501    5.0022 H       1  UNL1        0.0235
     56 H           1.1491    4.9789    5.5852 H       1  UNL1        0.0235
     57 H          -0.6053    7.3202    3.2080 H       1  UNL1        0.0235
     58 H          -1.9227    6.5939    4.1226 H       1  UNL1        0.0235
     59 H          -1.6005    6.0657    2.4684 H       1  UNL1        0.0235
     60 H           3.0948    1.7263    0.6350 H       1  UNL1        0.0344
     61 H           2.1933    0.8681    2.8891 H       1  UNL1        0.0235
     62 H           0.7269    0.4141    1.9883 H       1  UNL1        0.0235
     63 H           2.2844   -0.2551    1.5278 H       1  UNL1        0.0235
     64 H           0.1203    1.6942   -0.0557 H       1  UNL1        0.0235
     65 H           1.3934    2.4300   -1.0312 H       1  UNL1        0.0235
     66 H           1.3666    0.6812   -0.7843 H       1  UNL1        0.0235
@<TRIPOS>BOND
     1    65    30    1
     2    66    30    1
     3    30    64    1
     4    30    28    1
     5    36    15    1
     6    60    28    1
     7    37    16    1
     8    15    16   ar
     9    15    14   ar
    10    28    14    1
    11    28    29    1
    12    16    17   ar
    13    14    13   ar
    14    63    29    1
    15    31     5    1
    16    29    62    1
    17    29    61    1
    18    17    38    1
    19    17    18   ar
    20    59    27    1
    21    13    18   ar
    22    13     2    1
    23     5     2    1
    24     5     6    2
    25    18    25    1
    26     2     4    1
    27    42    20    1
    28    57    27    1
    29    27    25    1
    30    27    58    1
    31    40    20    1
    32    32     6    1
    33     6     3    1
    34    20    41    1
    35    20    19    1
    36    25    53    1
    37    25    26    1
    38     4     3    1
    39     4     1    1
    40     3     7    1
    41    39    19    1
    42    43    21    1
    43    55    26    1
    44    19    21    1
    45    19    12    1
    46    26    56    1
    47    26    54    1
    48    48    23    1
    49    46    22    1
    50    21    44    1
    51    21    45    1
    52     7    12   ar
    53     7     8   ar
    54    49    23    1
    55    12    11   ar
    56    23    22    1
    57    23    47    1
    58    22     8    1
    59    22    24    1
    60     8     9   ar
    61    11    35    1
    62    11    10   ar
    63    52    24    1
    64    24    50    1
    65    24    51    1
    66     9    10   ar
    67     9    33    1
    68    10    34    1
