@<TRIPOS>MOLECULE
1
 18 18 0 0 0
SMALL
GASTEIGER

@<TRIPOS>ATOM
      1 N           4.0110    3.4681   10.9315 N.pl3   1  UNL1       -0.1288
      2 C           5.0536    3.9367   11.6149 C.ar    1  UNL1        0.0782
      3 C           6.3617    3.4274   11.4283 C.ar    1  UNL1       -0.0257
      4 C           7.4183    3.9572   12.1471 C.ar    1  UNL1       -0.0570
      5 C           7.2281    4.9868   13.0514 C.ar    1  UNL1       -0.0611
      6 C           5.9505    5.4905   13.2453 C.ar    1  UNL1       -0.0570
      7 C           4.8674    4.9879   12.5534 C.ar    1  UNL1       -0.0257
      8 C           3.4835    5.5121   12.7796 C.3     1  UNL1       -0.0378
      9 C           6.5978    2.3116   10.4500 C.3     1  UNL1       -0.0378
     10 H           8.4100    3.5537   11.9912 H       1  UNL1        0.0621
     11 H           8.0642    5.3919   13.6020 H       1  UNL1        0.0618
     12 H           5.7935    6.2932   13.9536 H       1  UNL1        0.0621
     13 H           2.9460    5.5626   11.8279 H       1  UNL1        0.0278
     14 H           3.5110    6.4962   13.2419 H       1  UNL1        0.0278
     15 H           2.9352    4.8299   13.4304 H       1  UNL1        0.0278
     16 H           7.2914    2.6259    9.6695 H       1  UNL1        0.0278
     17 H           5.6498    2.0272    9.9893 H       1  UNL1        0.0278
     18 H           7.0284    1.4439   10.9517 H       1  UNL1        0.0278
@<TRIPOS>BOND
     1    16     9    1
     2    17     9    1
     3     9    18    1
     4     9     3    1
     5     1     2    1
     6     3     2   ar
     7     3     4   ar
     8     2     7   ar
     9    13     8    1
    10    10     4    1
    11     4     5   ar
    12     7     8    1
    13     7     6   ar
    14     8    14    1
    15     8    15    1
    16     5     6   ar
    17     5    11    1
    18     6    12    1
