@<TRIPOS>MOLECULE
1
 14 13 0 0 0
SMALL
GASTEIGER

@<TRIPOS>ATOM
      1 N           4.6968    4.9701    2.9421 N.3     1  UNL1        0.0000
      2 SI          4.7615    6.3560    1.9644 Si      1  UNL1        0.0000
      3 C           5.6932    6.0803    0.3058 C.3     1  UNL1        0.0000
      4 H           6.7659    6.1983    0.4228 H       1  UNL1        0.0000
      5 H           5.3703    6.8088   -0.4313 H       1  UNL1        0.0000
      6 H           5.5100    5.0952   -0.1057 H       1  UNL1        0.0000
      7 C           3.0229    7.0102    1.4726 C.3     1  UNL1        0.0000
      8 H           2.3798    6.2257    1.0916 H       1  UNL1        0.0000
      9 H           3.1222    7.7584    0.6921 H       1  UNL1        0.0000
     10 H           2.5187    7.4808    2.3090 H       1  UNL1        0.0000
     11 C           5.6275    7.8498    2.7965 C.3     1  UNL1        0.0000
     12 H           5.2086    8.0626    3.7745 H       1  UNL1        0.0000
     13 H           5.5241    8.7444    2.1900 H       1  UNL1        0.0000
     14 H           6.6871    7.6662    2.9365 H       1  UNL1        0.0000
@<TRIPOS>BOND
     1     5     3    1
     2     6     3    1
     3     3     4    1
     4     3     2    1
     5     9     7    1
     6     8     7    1
     7     7     2    1
     8     7    10    1
     9     2    11    1
    10     2     1    1
    11    13    11    1
    12    11    14    1
    13    11    12    1
