@<TRIPOS>MOLECULE
1
 30 30 0 0 0
SMALL
GASTEIGER

@<TRIPOS>ATOM
      1 N           3.9752    5.2813    3.4375 N.pl3   1  UNL1       -0.1288
      2 C           4.9366    5.6018    2.5769 C.ar    1  UNL1        0.0792
      3 C           5.8651    4.6231    2.1268 C.ar    1  UNL1       -0.0200
      4 C           6.8855    5.0046    1.2769 C.ar    1  UNL1       -0.0564
      5 H           7.6063    4.2711    0.9490 H       1  UNL1        0.0621
      6 C           7.0060    6.3108    0.8334 C.ar    1  UNL1       -0.0611
      7 H           7.8119    6.5855    0.1692 H       1  UNL1        0.0618
      8 C           6.0820    7.2587    1.2355 C.ar    1  UNL1       -0.0564
      9 H           6.1703    8.2714    0.8708 H       1  UNL1        0.0621
     10 C           5.0522    6.9323    2.0969 C.ar    1  UNL1       -0.0200
     11 C           5.7286    3.1947    2.5942 C.3     1  UNL1       -0.0196
     12 H           4.7087    3.0707    2.9779 H       1  UNL1        0.0344
     13 C           6.6934    2.9251    3.7529 C.3     1  UNL1       -0.0586
     14 H           7.7195    3.1332    3.4551 H       1  UNL1        0.0235
     15 H           6.6289    1.8837    4.0614 H       1  UNL1        0.0235
     16 H           6.4348    3.5538    4.6032 H       1  UNL1        0.0235
     17 C           5.9475    2.1874    1.4637 C.3     1  UNL1       -0.0586
     18 H           5.3495    2.4513    0.5944 H       1  UNL1        0.0235
     19 H           5.6565    1.1926    1.7950 H       1  UNL1        0.0235
     20 H           6.9925    2.1476    1.1658 H       1  UNL1        0.0235
     21 C           4.0324    7.9651    2.5133 C.3     1  UNL1       -0.0196
     22 H           3.3754    7.4992    3.2558 H       1  UNL1        0.0344
     23 C           4.6939    9.1800    3.1652 C.3     1  UNL1       -0.0586
     24 H           5.3118    8.8649    4.0030 H       1  UNL1        0.0235
     25 H           3.9343    9.8668    3.5334 H       1  UNL1        0.0235
     26 H           5.3209    9.7148    2.4555 H       1  UNL1        0.0235
     27 C           3.1806    8.3839    1.3123 C.3     1  UNL1       -0.0586
     28 H           3.7937    8.8627    0.5525 H       1  UNL1        0.0235
     29 H           2.4080    9.0842    1.6235 H       1  UNL1        0.0235
     30 H           2.7018    7.5143    0.8672 H       1  UNL1        0.0235
@<TRIPOS>BOND
     1     7     6    1
     2    28    27    1
     3    18    17    1
     4     6     8   ar
     5     6     4   ar
     6    30    27    1
     7     9     8    1
     8     5     4    1
     9    20    17    1
    10     8    10   ar
    11     4     3   ar
    12    27    29    1
    13    27    21    1
    14    17    19    1
    15    17    11    1
    16    10    21    1
    17    10     2   ar
    18     3     2   ar
    19     3    11    1
    20    26    23    1
    21    21    23    1
    22    21    22    1
    23     2     1    1
    24    11    12    1
    25    11    13    1
    26    23    25    1
    27    23    24    1
    28    14    13    1
    29    13    15    1
    30    13    16    1
