@<TRIPOS>MOLECULE
1
 30 30 0 0 0
SMALL
GASTEIGER

@<TRIPOS>ATOM
      1 N           4.2521    4.3843    6.1361 N.pl3   1  UNL1       -0.1288
      2 C           5.3017    4.2181    6.9347 C.ar    1  UNL1        0.0792
      3 C           5.3831    3.0677    7.7620 C.ar    1  UNL1       -0.0200
      4 C           6.4565    2.9171    8.6187 C.ar    1  UNL1       -0.0564
      5 H           6.5161    2.0426    9.2497 H       1  UNL1        0.0621
      6 C           7.4564    3.8712    8.6844 C.ar    1  UNL1       -0.0611
      7 H           8.2868    3.7415    9.3623 H       1  UNL1        0.0618
      8 C           7.3881    4.9929    7.8758 C.ar    1  UNL1       -0.0564
      9 H           8.1750    5.7303    7.9336 H       1  UNL1        0.0621
     10 C           6.3405    5.1880    6.9954 C.ar    1  UNL1       -0.0200
     11 C           4.2902    2.0284    7.6923 C.3     1  UNL1       -0.0196
     12 H           3.5604    2.3692    6.9485 H       1  UNL1        0.0344
     13 C           4.8497    0.6836    7.2244 C.3     1  UNL1       -0.0586
     14 H           5.3473    0.8000    6.2642 H       1  UNL1        0.0235
     15 H           4.0451   -0.0405    7.1137 H       1  UNL1        0.0235
     16 H           5.5685    0.2906    7.9394 H       1  UNL1        0.0235
     17 C           3.5786    1.8879    9.0396 C.3     1  UNL1       -0.0586
     18 H           4.2614    1.5227    9.8032 H       1  UNL1        0.0235
     19 H           2.7516    1.1853    8.9568 H       1  UNL1        0.0235
     20 H           3.1859    2.8499    9.3619 H       1  UNL1        0.0235
     21 C           6.2855    6.4255    6.1321 C.3     1  UNL1       -0.0196
     22 H           5.4178    6.3354    5.4637 H       1  UNL1        0.0344
     23 C           6.0969    7.6682    7.0066 C.3     1  UNL1       -0.0586
     24 H           5.1940    7.5717    7.6044 H       1  UNL1        0.0235
     25 H           6.0095    8.5579    6.3865 H       1  UNL1        0.0235
     26 H           6.9422    7.8013    7.6781 H       1  UNL1        0.0235
     27 C           7.5346    6.5609    5.2583 C.3     1  UNL1       -0.0586
     28 H           8.4276    6.6950    5.8640 H       1  UNL1        0.0235
     29 H           7.4353    7.4197    4.5983 H       1  UNL1        0.0235
     30 H           7.6615    5.6762    4.6407 H       1  UNL1        0.0235
@<TRIPOS>BOND
     1    29    27    1
     2    30    27    1
     3    27    28    1
     4    27    21    1
     5    22    21    1
     6    21    10    1
     7    21    23    1
     8     1     2    1
     9    14    13    1
    10    25    23    1
    11     2    10   ar
    12     2     3   ar
    13    12    11    1
    14    10     8   ar
    15    23    24    1
    16    23    26    1
    17    15    13    1
    18    13    11    1
    19    13    16    1
    20    11     3    1
    21    11    17    1
    22     3     4   ar
    23     8     9    1
    24     8     6   ar
    25     4     6   ar
    26     4     5    1
    27     6     7    1
    28    19    17    1
    29    17    20    1
    30    17    18    1
