@<TRIPOS>MOLECULE
7
 15 15 0 0 0
SMALL
GASTEIGER

@<TRIPOS>ATOM
      1 C           7.0671    7.4662    3.4795 C.ar    1  UNL1       -0.0369
      2 C           5.7219    7.5891    3.7409 C.ar    1  UNL1       -0.0570
      3 C           4.7651    7.0737    2.8705 C.ar    1  UNL1       -0.0503
      4 C           5.2075    6.4188    1.7277 C.ar    1  UNL1       -0.0570
      5 C           6.5504    6.2773    1.4522 C.ar    1  UNL1       -0.0369
      6 C           3.3044    7.2271    3.1716 C.3     1  UNL1       -0.0397
      7 N           8.8400    6.6829    2.0791 N.pl3   1  UNL1       -0.1294
      8 C           7.5273    6.8016    2.3223 C.ar    1  UNL1        0.0724
      9 H           7.8022    7.8558    4.1704 H       1  UNL1        0.0637
     10 H           5.3986    8.0962    4.6401 H       1  UNL1        0.0621
     11 H           4.4836    6.0057    1.0387 H       1  UNL1        0.0621
     12 H           6.8732    5.7606    0.5593 H       1  UNL1        0.0637
     13 H           2.6990    6.7301    2.4177 H       1  UNL1        0.0278
     14 H           3.0677    6.7987    4.1451 H       1  UNL1        0.0278
     15 H           3.0279    8.2814    3.1972 H       1  UNL1        0.0278
@<TRIPOS>BOND
     1    12     5    1
     2    11     4    1
     3     5     4   ar
     4     5     8   ar
     5     4     3   ar
     6     7     8    1
     7     8     1   ar
     8    13     6    1
     9     3     6    1
    10     3     2   ar
    11     6    15    1
    12     6    14    1
    13     1     2   ar
    14     1     9    1
    15     2    10    1
