@<TRIPOS>MOLECULE
1
 15 15 0 0 0
SMALL
GASTEIGER

@<TRIPOS>ATOM
      1 N           8.5262    4.2195    5.7314 N.pl3   1  UNL1       -0.1294
      2 C           8.1048    5.2098    6.5183 C.ar    1  UNL1        0.0724
      3 C           8.9013    6.3483    6.7587 C.ar    1  UNL1       -0.0369
      4 C           8.4667    7.3516    7.5965 C.ar    1  UNL1       -0.0570
      5 C           7.2372    7.2768    8.2407 C.ar    1  UNL1       -0.0503
      6 C           6.4414    6.1583    8.0063 C.ar    1  UNL1       -0.0570
      7 C           6.8512    5.1503    7.1648 C.ar    1  UNL1       -0.0369
      8 C           6.7699    8.3612    9.1657 C.3     1  UNL1       -0.0397
      9 H           9.8592    6.4140    6.2599 H       1  UNL1        0.0637
     10 H           9.0986    8.2149    7.7581 H       1  UNL1        0.0621
     11 H           5.4776    6.0857    8.4927 H       1  UNL1        0.0621
     12 H           6.2208    4.2904    6.9771 H       1  UNL1        0.0637
     13 H           6.7059    7.9902   10.1896 H       1  UNL1        0.0278
     14 H           7.4543    9.2061    9.1494 H       1  UNL1        0.0278
     15 H           5.7790    8.7108    8.8776 H       1  UNL1        0.0278
@<TRIPOS>BOND
     1     1     2    1
     2     9     3    1
     3     2     3   ar
     4     2     7   ar
     5     3     4   ar
     6    12     7    1
     7     7     6   ar
     8     4    10    1
     9     4     5   ar
    10     6     5   ar
    11     6    11    1
    12     5     8    1
    13    15     8    1
    14    14     8    1
    15     8    13    1
