@<TRIPOS>MOLECULE
1
 15 15 0 0 0
SMALL
GASTEIGER

@<TRIPOS>ATOM
      1 N           8.0328    2.4071    3.5086 N.pl3   1  UNL1       -0.1294
      2 C           6.8828    2.1145    2.8973 C.ar    1  UNL1        0.0724
      3 C           5.6853    2.2203    3.6413 C.ar    1  UNL1       -0.0369
      4 C           4.4729    1.8741    3.0928 C.ar    1  UNL1       -0.0570
      5 C           4.3801    1.4218    1.7794 C.ar    1  UNL1       -0.0503
      6 C           5.5506    1.3285    1.0340 C.ar    1  UNL1       -0.0570
      7 C           6.7764    1.6577    1.5698 C.ar    1  UNL1       -0.0369
      8 C           3.0559    1.0681    1.1703 C.3     1  UNL1       -0.0397
      9 H           5.7719    2.5877    4.6608 H       1  UNL1        0.0637
     10 H           3.5738    1.9610    3.6887 H       1  UNL1        0.0621
     11 H           5.4967    0.9829    0.0102 H       1  UNL1        0.0621
     12 H           7.6729    1.5736    0.9716 H       1  UNL1        0.0637
     13 H           2.2994    0.9290    1.9393 H       1  UNL1        0.0278
     14 H           2.7208    1.8645    0.5042 H       1  UNL1        0.0278
     15 H           3.1314    0.1540    0.5831 H       1  UNL1        0.0278
@<TRIPOS>BOND
     1    11     6    1
     2    14     8    1
     3    15     8    1
     4    12     7    1
     5     6     7   ar
     6     6     5   ar
     7     8     5    1
     8     8    13    1
     9     7     2   ar
    10     5     4   ar
    11     2     1    1
    12     2     3   ar
    13     4     3   ar
    14     4    10    1
    15     3     9    1
