@<TRIPOS>MOLECULE
1
 18 18 0 0 0
SMALL
GASTEIGER

@<TRIPOS>ATOM
      1 N           1.1284    0.5779    4.0029 N.pl3   1  UNL1       -0.1288
      2 C           0.0343   -0.1139    4.3224 C.ar    1  UNL1        0.0782
      3 C          -0.0127   -0.9032    5.5031 C.ar    1  UNL1       -0.0257
      4 C          -1.1509   -1.6276    5.8060 C.ar    1  UNL1       -0.0570
      5 C          -2.2648   -1.5999    4.9846 C.ar    1  UNL1       -0.0611
      6 C          -2.2418   -0.8147    3.8455 C.ar    1  UNL1       -0.0570
      7 C          -1.1262   -0.0721    3.5045 C.ar    1  UNL1       -0.0257
      8 C           1.1706   -0.9615    6.4188 C.3     1  UNL1       -0.0378
      9 C          -1.1542    0.7812    2.2726 C.3     1  UNL1       -0.0378
     10 H          -1.1659   -2.2236    6.7081 H       1  UNL1        0.0621
     11 H          -3.1436   -2.1745    5.2356 H       1  UNL1        0.0618
     12 H          -3.1128   -0.7734    3.2062 H       1  UNL1        0.0621
     13 H           1.7045   -0.0127    6.3891 H       1  UNL1        0.0278
     14 H           1.8476   -1.7554    6.1005 H       1  UNL1        0.0278
     15 H           0.8528   -1.1698    7.4386 H       1  UNL1        0.0278
     16 H          -0.4908    1.6353    2.3923 H       1  UNL1        0.0278
     17 H          -2.1674    1.1241    2.0720 H       1  UNL1        0.0278
     18 H          -0.8194    0.2061    1.4080 H       1  UNL1        0.0278
@<TRIPOS>BOND
     1    18     9    1
     2    17     9    1
     3     9    16    1
     4     9     7    1
     5    12     6    1
     6     7     6   ar
     7     7     2   ar
     8     6     5   ar
     9     1     2    1
    10     2     3   ar
    11     5    11    1
    12     5     4   ar
    13     3     4   ar
    14     3     8    1
    15     4    10    1
    16    14     8    1
    17    13     8    1
    18     8    15    1
