@<TRIPOS>MOLECULE
1
 18 18 0 0 0
SMALL
GASTEIGER

@<TRIPOS>ATOM
      1 N           9.1291    2.0985   12.7020 N.pl3   1  UNL1       -0.1288
      2 C           9.3839    3.3768   12.9922 C.ar    1  UNL1        0.0782
      3 C           8.4856    4.1394   13.7865 C.ar    1  UNL1       -0.0257
      4 C           8.7258    5.4818   14.0118 C.ar    1  UNL1       -0.0570
      5 C           9.8421    6.1132   13.4924 C.ar    1  UNL1       -0.0611
      6 C          10.7457    5.3748   12.7502 C.ar    1  UNL1       -0.0570
      7 C          10.5446    4.0295   12.4988 C.ar    1  UNL1       -0.0257
      8 C           7.2929    3.4870   14.4110 C.3     1  UNL1       -0.0378
      9 C          11.5775    3.2654   11.7286 C.3     1  UNL1       -0.0378
     10 H           8.0230    6.0447   14.6101 H       1  UNL1        0.0621
     11 H          10.0110    7.1643   13.6730 H       1  UNL1        0.0618
     12 H          11.6326    5.8522   12.3565 H       1  UNL1        0.0621
     13 H           6.5138    4.2209   14.6046 H       1  UNL1        0.0278
     14 H           6.9158    2.7127   13.7496 H       1  UNL1        0.0278
     15 H           7.5777    3.0252   15.3579 H       1  UNL1        0.0278
     16 H          11.1182    2.4288   11.2107 H       1  UNL1        0.0278
     17 H          12.0831    3.9129   11.0150 H       1  UNL1        0.0278
     18 H          12.3305    2.8732   12.4147 H       1  UNL1        0.0278
@<TRIPOS>BOND
     1    17     9    1
     2    16     9    1
     3     9    18    1
     4     9     7    1
     5    12     6    1
     6     7     6   ar
     7     7     2   ar
     8     1     2    1
     9     6     5   ar
    10     2     3   ar
    11     5    11    1
    12     5     4   ar
    13    14     8    1
    14     3     4   ar
    15     3     8    1
    16     4    10    1
    17     8    13    1
    18     8    15    1
