@<TRIPOS>MOLECULE
2
 41 40 0 0 0
SMALL
GASTEIGER

@<TRIPOS>ATOM
      1 P           1.3474    7.1254    9.7243 P.3     1  UNL1       -0.0136
      2 N           2.2281    8.3689    9.4234 N.3     1  UNL1       -0.1188
      3 C           0.5303    7.3142   11.4623 C.3     1  UNL1       -0.0050
      4 C          -0.4604    8.4698   11.3159 C.3     1  UNL1       -0.0552
      5 H          -0.8071    8.7869   12.2994 H       1  UNL1        0.0239
      6 H          -1.3364    8.1831   10.7413 H       1  UNL1        0.0239
      7 H           0.0370    9.3174   10.8428 H       1  UNL1        0.0239
      8 C          -0.1910    6.0771   11.9911 C.3     1  UNL1       -0.0552
      9 H           0.5034    5.2736   12.2223 H       1  UNL1        0.0239
     10 H          -0.9292    5.7053   11.2867 H       1  UNL1        0.0239
     11 H          -0.7084    6.3393   12.9145 H       1  UNL1        0.0239
     12 C           1.5903    7.7761   12.4659 C.3     1  UNL1       -0.0552
     13 H           1.1096    8.3259   13.2742 H       1  UNL1        0.0239
     14 H           2.3087    8.4566   11.9876 H       1  UNL1        0.0239
     15 H           2.1307    6.9496   12.9164 H       1  UNL1        0.0239
     16 C           0.0063    7.0664    8.3422 C.3     1  UNL1       -0.0050
     17 C           0.7222    6.6176    7.0669 C.3     1  UNL1       -0.0552
     18 H           0.9615    5.5584    7.0848 H       1  UNL1        0.0239
     19 H           1.6329    7.2001    6.9341 H       1  UNL1        0.0239
     20 H           0.0799    6.7907    6.2028 H       1  UNL1        0.0239
     21 C          -0.4523    8.5058    8.0917 C.3     1  UNL1       -0.0552
     22 H           0.4037    9.1791    8.1669 H       1  UNL1        0.0239
     23 H          -1.2147    8.8312    8.7908 H       1  UNL1        0.0239
     24 H          -0.8695    8.5917    7.0888 H       1  UNL1        0.0239
     25 C          -1.1905    6.1582    8.6000 C.3     1  UNL1       -0.0552
     26 H          -1.8098    6.1223    7.7028 H       1  UNL1        0.0239
     27 H          -1.8110    6.5307    9.4107 H       1  UNL1        0.0239
     28 H          -0.8816    5.1435    8.8354 H       1  UNL1        0.0239
     29 C           2.4220    5.5133    9.6800 C.3     1  UNL1       -0.0050
     30 C           1.6559    4.1991    9.5579 C.3     1  UNL1       -0.0552
     31 H           2.3580    3.3689    9.6454 H       1  UNL1        0.0239
     32 H           1.1569    4.1067    8.5968 H       1  UNL1        0.0239
     33 H           0.9137    4.0950   10.3440 H       1  UNL1        0.0239
     34 C           3.4236    5.6659    8.5331 C.3     1  UNL1       -0.0552
     35 H           4.2860    5.0221    8.7049 H       1  UNL1        0.0239
     36 H           3.7748    6.7023    8.5006 H       1  UNL1        0.0239
     37 H           3.0048    5.4015    7.5674 H       1  UNL1        0.0239
     38 C           3.2437    5.5066   10.9699 C.3     1  UNL1       -0.0552
     39 H           2.6371    5.2515   11.8334 H       1  UNL1        0.0239
     40 H           3.7161    6.4824   11.1250 H       1  UNL1        0.0239
     41 H           4.0339    4.7581   10.8978 H       1  UNL1        0.0239
@<TRIPOS>BOND
     1    20    17    1
     2    19    17    1
     3    17    18    1
     4    17    16    1
     5    24    21    1
     6    37    34    1
     7    26    25    1
     8    21    22    1
     9    21    16    1
    10    21    23    1
    11    16    25    1
    12    16     1    1
    13    36    34    1
    14    34    35    1
    15    34    29    1
    16    32    30    1
    17    25    28    1
    18    25    27    1
    19     2     1    1
    20    30    31    1
    21    30    29    1
    22    30    33    1
    23    29     1    1
    24    29    38    1
    25     1     3    1
    26     6     4    1
    27     7     4    1
    28    41    38    1
    29    38    40    1
    30    38    39    1
    31    10     8    1
    32     4     3    1
    33     4     5    1
    34     3     8    1
    35     3    12    1
    36    14    12    1
    37     8     9    1
    38     8    11    1
    39    12    15    1
    40    12    13    1
