@<TRIPOS>MOLECULE
2
 41 40 0 0 0
SMALL
GASTEIGER

@<TRIPOS>ATOM
      1 P           5.7580   10.1570    7.4534 P.3     1  UNL1       -0.0136
      2 N           4.5222    9.8294    8.3367 N.3     1  UNL1       -0.1188
      3 C           7.3128    9.1785    8.0550 C.3     1  UNL1       -0.0050
      4 C           6.8674    7.7718    8.4591 C.3     1  UNL1       -0.0552
      5 H           6.5983    7.1454    7.6156 H       1  UNL1        0.0239
      6 H           6.0147    7.8441    9.1430 H       1  UNL1        0.0239
      7 H           7.6804    7.2771    8.9908 H       1  UNL1        0.0239
      8 C           7.7806    9.8473    9.3481 C.3     1  UNL1       -0.0552
      9 H           8.5060    9.2045    9.8478 H       1  UNL1        0.0239
     10 H           6.9306    9.9823   10.0252 H       1  UNL1        0.0239
     11 H           8.2659   10.8008    9.1640 H       1  UNL1        0.0239
     12 C           8.4697    9.1116    7.0612 C.3     1  UNL1       -0.0552
     13 H           8.7609   10.1006    6.7194 H       1  UNL1        0.0239
     14 H           8.2255    8.5030    6.1944 H       1  UNL1        0.0239
     15 H           9.3325    8.6568    7.5492 H       1  UNL1        0.0239
     16 C           5.2970    9.6543    5.6491 C.3     1  UNL1       -0.0050
     17 C           6.1814   10.2319    4.5496 C.3     1  UNL1       -0.0552
     18 H           5.8880    9.7987    3.5924 H       1  UNL1        0.0239
     19 H           7.2294    9.9992    4.7160 H       1  UNL1        0.0239
     20 H           6.0728   11.3097    4.4675 H       1  UNL1        0.0239
     21 C           5.3457    8.1268    5.5849 C.3     1  UNL1       -0.0552
     22 H           4.7787    7.7059    6.4141 H       1  UNL1        0.0239
     23 H           6.3635    7.7484    5.6056 H       1  UNL1        0.0239
     24 H           4.8904    7.7832    4.6551 H       1  UNL1        0.0239
     25 C           3.8322   10.0430    5.4282 C.3     1  UNL1       -0.0552
     26 H           3.4114    9.4509    4.6158 H       1  UNL1        0.0239
     27 H           3.7106   11.0884    5.1668 H       1  UNL1        0.0239
     28 H           3.2590    9.8385    6.3354 H       1  UNL1        0.0239
     29 C           6.1112   12.0519    7.5548 C.3     1  UNL1       -0.0050
     30 C           7.4281   12.5282    6.9489 C.3     1  UNL1       -0.0552
     31 H           7.5324   12.2208    5.9122 H       1  UNL1        0.0239
     32 H           8.2856   12.1625    7.5072 H       1  UNL1        0.0239
     33 H           7.4563   13.6178    6.9812 H       1  UNL1        0.0239
     34 C           6.0169   12.4741    9.0250 C.3     1  UNL1       -0.0552
     35 H           6.9540   12.3503    9.5571 H       1  UNL1        0.0239
     36 H           5.2374   11.9000    9.5401 H       1  UNL1        0.0239
     37 H           5.7492   13.5283    9.0854 H       1  UNL1        0.0239
     38 C           4.9417   12.7270    6.8369 C.3     1  UNL1       -0.0552
     39 H           4.9413   13.7949    7.0548 H       1  UNL1        0.0239
     40 H           4.0030   12.3068    7.1971 H       1  UNL1        0.0239
     41 H           5.0066   12.6171    5.7581 H       1  UNL1        0.0239
@<TRIPOS>BOND
     1    18    17    1
     2    20    17    1
     3    17    19    1
     4    17    16    1
     5    26    25    1
     6    24    21    1
     7    27    25    1
     8    25    16    1
     9    25    28    1
    10    21    23    1
    11    21    16    1
    12    21    22    1
    13    16     1    1
    14    41    38    1
    15    31    30    1
    16    14    12    1
    17    13    12    1
    18    38    39    1
    19    38    40    1
    20    38    29    1
    21    30    33    1
    22    30    32    1
    23    30    29    1
    24    12    15    1
    25    12     3    1
    26     1    29    1
    27     1     3    1
    28     1     2    1
    29    29    34    1
    30     5     4    1
    31     3     4    1
    32     3     8    1
    33     4     7    1
    34     4     6    1
    35    34    37    1
    36    34    36    1
    37    34    35    1
    38    11     8    1
    39     8     9    1
    40     8    10    1
