@<TRIPOS>MOLECULE
2
 41 40 0 0 0
SMALL
GASTEIGER

@<TRIPOS>ATOM
      1 P          -2.1162    7.8510   14.1810 P.3     1  UNL1       -0.0136
      2 N          -1.0773    8.1072   13.0241 N.3     1  UNL1       -0.1188
      3 C          -2.7654    9.5554   14.7938 C.3     1  UNL1       -0.0050
      4 C          -4.0367    9.5014   15.6349 C.3     1  UNL1       -0.0552
      5 H          -4.8965    9.1757   15.0562 H       1  UNL1        0.0239
      6 H          -4.2534   10.5026   16.0075 H       1  UNL1        0.0239
      7 H          -3.9235    8.8436   16.4917 H       1  UNL1        0.0239
      8 C          -2.9599   10.4474   13.5648 C.3     1  UNL1       -0.0552
      9 H          -2.1494   10.2658   12.8534 H       1  UNL1        0.0239
     10 H          -2.9178   11.4941   13.8619 H       1  UNL1        0.0239
     11 H          -3.9137   10.2867   13.0737 H       1  UNL1        0.0239
     12 C          -1.6408   10.1915   15.6083 C.3     1  UNL1       -0.0552
     13 H          -0.7167   10.1781   15.0327 H       1  UNL1        0.0239
     14 H          -1.4912    9.6986   16.5638 H       1  UNL1        0.0239
     15 H          -1.8864   11.2320   15.8192 H       1  UNL1        0.0239
     16 C          -1.2397    6.8821   15.5896 C.3     1  UNL1       -0.0050
     17 C          -2.0013    6.8563   16.9120 C.3     1  UNL1       -0.0552
     18 H          -2.0421    7.8371   17.3773 H       1  UNL1        0.0239
     19 H          -1.4861    6.1887   17.6026 H       1  UNL1        0.0239
     20 H          -3.0154    6.4886   16.7850 H       1  UNL1        0.0239
     21 C           0.1555    7.4726   15.7903 C.3     1  UNL1       -0.0552
     22 H           0.6353    7.6521   14.8151 H       1  UNL1        0.0239
     23 H           0.7739    6.7618   16.3381 H       1  UNL1        0.0239
     24 H           0.1323    8.3943   16.3604 H       1  UNL1        0.0239
     25 C          -1.0330    5.4565   15.0802 C.3     1  UNL1       -0.0552
     26 H          -0.5820    5.4827   14.0885 H       1  UNL1        0.0239
     27 H          -1.9605    4.8932   15.0541 H       1  UNL1        0.0239
     28 H          -0.3533    4.9262   15.7467 H       1  UNL1        0.0239
     29 C          -3.5504    6.8125   13.4379 C.3     1  UNL1       -0.0050
     30 C          -4.5061    6.1915   14.4512 C.3     1  UNL1       -0.0552
     31 H          -5.3214    5.7070   13.9137 H       1  UNL1        0.0239
     32 H          -4.9379    6.9375   15.1119 H       1  UNL1        0.0239
     33 H          -4.0187    5.4329   15.0568 H       1  UNL1        0.0239
     34 C          -2.9258    5.7323   12.5512 C.3     1  UNL1       -0.0552
     35 H          -3.6204    5.4553   11.7600 H       1  UNL1        0.0239
     36 H          -2.6906    4.8279   13.1006 H       1  UNL1        0.0239
     37 H          -2.0136    6.1149   12.0895 H       1  UNL1        0.0239
     38 C          -4.3253    7.7496   12.5104 C.3     1  UNL1       -0.0552
     39 H          -3.6293    8.2836   11.8656 H       1  UNL1        0.0239
     40 H          -4.9358    8.4564   13.0640 H       1  UNL1        0.0239
     41 H          -4.9976    7.1672   11.8807 H       1  UNL1        0.0239
@<TRIPOS>BOND
     1    35    34    1
     2    39    38    1
     3    41    38    1
     4    37    34    1
     5    38    40    1
     6    38    29    1
     7    34    36    1
     8    34    29    1
     9     9     8    1
    10     2     1    1
    11    11     8    1
    12    29     1    1
    13    29    30    1
    14     8    10    1
    15     8     3    1
    16    31    30    1
    17    26    25    1
    18     1     3    1
    19     1    16    1
    20    30    33    1
    21    30    32    1
    22     3    12    1
    23     3     4    1
    24    22    21    1
    25    13    12    1
    26    27    25    1
    27     5     4    1
    28    25    16    1
    29    25    28    1
    30    16    21    1
    31    16    17    1
    32    12    15    1
    33    12    14    1
    34     4     6    1
    35     4     7    1
    36    21    23    1
    37    21    24    1
    38    20    17    1
    39    17    18    1
    40    17    19    1
