@<TRIPOS>MOLECULE
2
 41 40 0 0 0
SMALL
GASTEIGER

@<TRIPOS>ATOM
      1 P          -0.3980   10.1800    9.3129 P.3     1  UNL1       -0.0136
      2 N          -0.2095    9.5599   10.7409 N.3     1  UNL1       -0.1188
      3 C          -0.2526   12.0972    9.4292 C.3     1  UNL1       -0.0050
      4 C          -0.7340   12.8679    8.2038 C.3     1  UNL1       -0.0552
      5 H          -0.2507   12.5263    7.2937 H       1  UNL1        0.0239
      6 H          -0.4931   13.9227    8.3368 H       1  UNL1        0.0239
      7 H          -1.8104   12.7926    8.0748 H       1  UNL1        0.0239
      8 C           1.2304   12.3920    9.6624 C.3     1  UNL1       -0.0552
      9 H           1.8102   12.2951    8.7496 H       1  UNL1        0.0239
     10 H           1.6364   11.7209   10.4194 H       1  UNL1        0.0239
     11 H           1.3537   13.4165   10.0132 H       1  UNL1        0.0239
     12 C          -1.0108   12.5600   10.6753 C.3     1  UNL1       -0.0552
     13 H          -0.6024   13.5044   11.0297 H       1  UNL1        0.0239
     14 H          -0.9008   11.8243   11.4700 H       1  UNL1        0.0239
     15 H          -2.0669   12.7187   10.4857 H       1  UNL1        0.0239
     16 C          -2.1528    9.6818    8.7002 C.3     1  UNL1       -0.0050
     17 C          -2.4079    9.8741    7.2088 C.3     1  UNL1       -0.0552
     18 H          -1.8101    9.1994    6.6033 H       1  UNL1        0.0239
     19 H          -2.2060   10.8941    6.8952 H       1  UNL1        0.0239
     20 H          -3.4563    9.6600    6.9997 H       1  UNL1        0.0239
     21 C          -3.1557   10.5228    9.4912 C.3     1  UNL1       -0.0552
     22 H          -3.1786   11.5528    9.1499 H       1  UNL1        0.0239
     23 H          -2.9103   10.4934   10.5503 H       1  UNL1        0.0239
     24 H          -4.1590   10.1168    9.3603 H       1  UNL1        0.0239
     25 C          -2.3830    8.2242    9.1051 C.3     1  UNL1       -0.0552
     26 H          -3.4518    8.0264    9.1780 H       1  UNL1        0.0239
     27 H          -1.9221    8.0347   10.0809 H       1  UNL1        0.0239
     28 H          -1.9727    7.5260    8.3854 H       1  UNL1        0.0239
     29 C           0.9505    9.4874    8.1275 C.3     1  UNL1       -0.0050
     30 C           1.0977   10.2031    6.7878 C.3     1  UNL1       -0.0552
     31 H           1.7999    9.6443    6.1691 H       1  UNL1        0.0239
     32 H           1.4969   11.2066    6.9056 H       1  UNL1        0.0239
     33 H           0.1543   10.2623    6.2536 H       1  UNL1        0.0239
     34 C           0.5830    8.0222    7.8953 C.3     1  UNL1       -0.0552
     35 H          -0.2761    7.9181    7.2405 H       1  UNL1        0.0239
     36 H           0.3882    7.5384    8.8531 H       1  UNL1        0.0239
     37 H           1.4153    7.5069    7.4166 H       1  UNL1        0.0239
     38 C           2.2880    9.4874    8.8712 C.3     1  UNL1       -0.0552
     39 H           2.9451    8.7385    8.4301 H       1  UNL1        0.0239
     40 H           2.1324    9.2226    9.9239 H       1  UNL1        0.0239
     41 H           2.7979   10.4427    8.8096 H       1  UNL1        0.0239
@<TRIPOS>BOND
     1    31    30    1
     2    33    30    1
     3    18    17    1
     4    30    32    1
     5    30    29    1
     6    19    17    1
     7    20    17    1
     8    17    16    1
     9    35    34    1
    10     5     4    1
    11    37    34    1
    12    34    29    1
    13    34    36    1
    14     7     4    1
    15    29    38    1
    16    29     1    1
    17     4     6    1
    18     4     3    1
    19    28    25    1
    20    39    38    1
    21    16    25    1
    22    16     1    1
    23    16    21    1
    24     9     8    1
    25    41    38    1
    26    38    40    1
    27    25    26    1
    28    25    27    1
    29    22    21    1
    30     1     3    1
    31     1     2    1
    32    24    21    1
    33     3     8    1
    34     3    12    1
    35    21    23    1
    36     8    11    1
    37     8    10    1
    38    15    12    1
    39    12    13    1
    40    12    14    1
