@<TRIPOS>MOLECULE
1
 12 12 0 0 0
SMALL
GASTEIGER

@<TRIPOS>ATOM
      1 N           4.3578    4.2851   11.7832 N.pl3   1  UNL1       -0.1294
      2 C           5.1352    4.5436   10.7238 C.ar    1  UNL1        0.0724
      3 C           5.8012    5.7775   10.5618 C.ar    1  UNL1       -0.0372
      4 C           6.5811    6.0213    9.4534 C.ar    1  UNL1       -0.0599
      5 C           6.7423    5.0560    8.4700 C.ar    1  UNL1       -0.0616
      6 C           6.1048    3.8324    8.6108 C.ar    1  UNL1       -0.0599
      7 C           5.3145    3.5754    9.7091 C.ar    1  UNL1       -0.0372
      8 H           5.6824    6.5252   11.3325 H       1  UNL1        0.0637
      9 H           7.0770    6.9768    9.3521 H       1  UNL1        0.0618
     10 H           7.3582    5.2536    7.6056 H       1  UNL1        0.0618
     11 H           6.2243    3.0725    7.8499 H       1  UNL1        0.0618
     12 H           4.8132    2.6181    9.8158 H       1  UNL1        0.0637
@<TRIPOS>BOND
     1    10     5    1
     2    11     6    1
     3     5     6   ar
     4     5     4   ar
     5     6     7   ar
     6     9     4    1
     7     4     3   ar
     8     7    12    1
     9     7     2   ar
    10     3     2   ar
    11     3     8    1
    12     2     1    1
