@<TRIPOS>MOLECULE
1
 30 30 0 0 0
SMALL
GASTEIGER

@<TRIPOS>ATOM
      1 N          -0.8855    1.3793   -0.6848 N.pl3   1  UNL1       -0.1288
      2 C          -1.3735    2.4200   -1.3696 C.ar    1  UNL1        0.0792
      3 C          -2.0238    2.2297   -2.6161 C.ar    1  UNL1       -0.0200
      4 C          -1.2374    3.7247   -0.8300 C.ar    1  UNL1       -0.0200
      5 C          -2.4941    3.3390   -3.2932 C.ar    1  UNL1       -0.0564
      6 C          -2.2270    0.8215   -3.1182 C.3     1  UNL1       -0.0196
      7 C          -1.7400    4.7973   -1.5416 C.ar    1  UNL1       -0.0564
      8 C          -0.6042    3.8744    0.5325 C.3     1  UNL1       -0.0196
      9 C          -2.3535    4.6134   -2.7691 C.ar    1  UNL1       -0.0611
     10 H          -2.9885    3.2156   -4.2436 H       1  UNL1        0.0621
     11 C          -2.3421    0.7127   -4.6359 C.3     1  UNL1       -0.0586
     12 C          -3.4737    0.2346   -2.4460 C.3     1  UNL1       -0.0586
     13 H          -1.3657    0.2234   -2.7940 H       1  UNL1        0.0344
     14 H          -1.6521    5.7950   -1.1412 H       1  UNL1        0.0621
     15 C           0.0936    5.2147    0.7438 C.3     1  UNL1       -0.0586
     16 C          -1.6726    3.6510    1.6086 C.3     1  UNL1       -0.0586
     17 H           0.1479    3.0804    0.6373 H       1  UNL1        0.0344
     18 H          -2.7330    5.4649   -3.3140 H       1  UNL1        0.0618
     19 H          -2.3377   -0.3369   -4.9203 H       1  UNL1        0.0235
     20 H          -3.2698    1.1513   -4.9955 H       1  UNL1        0.0235
     21 H          -1.5052    1.2062   -5.1232 H       1  UNL1        0.0235
     22 H          -3.3510    0.2458   -1.3659 H       1  UNL1        0.0235
     23 H          -4.3552    0.8169   -2.7072 H       1  UNL1        0.0235
     24 H          -3.6214   -0.7946   -2.7637 H       1  UNL1        0.0235
     25 H           0.7843    5.4210   -0.0710 H       1  UNL1        0.0235
     26 H          -0.6256    6.0276    0.8113 H       1  UNL1        0.0235
     27 H           0.6527    5.1873    1.6767 H       1  UNL1        0.0235
     28 H          -2.1242    2.6680    1.4896 H       1  UNL1        0.0235
     29 H          -1.2310    3.7109    2.6013 H       1  UNL1        0.0235
     30 H          -2.4565    4.4019    1.5264 H       1  UNL1        0.0235
@<TRIPOS>BOND
     1    21    11    1
     2    20    11    1
     3    19    11    1
     4    11     6    1
     5    10     5    1
     6    18     9    1
     7     5     9   ar
     8     5     3   ar
     9     6    13    1
    10     6     3    1
    11     6    12    1
    12     9     7   ar
    13    24    12    1
    14    23    12    1
    15     3     2   ar
    16    12    22    1
    17     7    14    1
    18     7     4   ar
    19     2     4   ar
    20     2     1    1
    21     4     8    1
    22    25    15    1
    23     8    17    1
    24     8    15    1
    25     8    16    1
    26    15    26    1
    27    15    27    1
    28    28    16    1
    29    30    16    1
    30    16    29    1
