@<TRIPOS>MOLECULE
1
 30 30 0 0 0
SMALL
GASTEIGER

@<TRIPOS>ATOM
      1 N          -0.7517   -1.4564   -0.6847 N.pl3   1  UNL1       -0.1288
      2 C          -1.4089   -2.3995   -1.3694 C.ar    1  UNL1        0.0792
      3 C          -0.9191   -2.8676   -2.6158 C.ar    1  UNL1       -0.0200
      4 C          -2.6068   -2.9340   -0.8296 C.ar    1  UNL1       -0.0200
      5 C          -1.6447   -3.8295   -3.2928 C.ar    1  UNL1       -0.0564
      6 C           0.4019   -2.3394   -3.1181 C.3     1  UNL1       -0.0196
      7 C          -3.2845   -3.9056   -1.5411 C.ar    1  UNL1       -0.0564
      8 C          -3.0529   -2.4605    0.5329 C.3     1  UNL1       -0.0196
      9 C          -2.8186   -4.3450   -2.7686 C.ar    1  UNL1       -0.0611
     10 H          -1.2907   -4.1960   -4.2433 H       1  UNL1        0.0621
     11 C           0.5535   -2.3848   -4.6359 C.3     1  UNL1       -0.0586
     12 C           1.5337   -3.1256   -2.4460 C.3     1  UNL1       -0.0586
     13 H           0.4894   -1.2945   -2.7940 H       1  UNL1        0.0344
     14 H          -4.1924   -4.3283   -1.1406 H       1  UNL1        0.0621
     15 C          -4.5626   -2.5262    0.7443 C.3     1  UNL1       -0.0586
     16 C          -2.3252   -3.2742    1.6090 C.3     1  UNL1       -0.0586
     17 H          -2.7412   -1.4122    0.6378 H       1  UNL1        0.0344
     18 H          -3.3663   -5.0994   -3.3134 H       1  UNL1        0.0618
     19 H           1.4603   -1.8561   -4.9204 H       1  UNL1        0.0235
     20 H           0.6376   -3.4075   -4.9954 H       1  UNL1        0.0235
     21 H          -0.2923   -1.9068   -5.1231 H       1  UNL1        0.0235
     22 H           1.4628   -3.0249   -1.3659 H       1  UNL1        0.0235
     23 H           1.4702   -4.1802   -2.7072 H       1  UNL1        0.0235
     24 H           2.4988   -2.7389   -2.7638 H       1  UNL1        0.0235
     25 H          -5.0865   -2.0312   -0.0704 H       1  UNL1        0.0235
     26 H          -4.9070   -3.5555    0.8118 H       1  UNL1        0.0235
     27 H          -4.8182   -2.0284    1.6773 H       1  UNL1        0.0235
     28 H          -1.2481   -3.1739    1.4899 H       1  UNL1        0.0235
     29 H          -2.5978   -2.9217    2.6018 H       1  UNL1        0.0235
     30 H          -2.5837   -4.3285    1.5268 H       1  UNL1        0.0235
@<TRIPOS>BOND
     1    21    11    1
     2    20    11    1
     3    19    11    1
     4    11     6    1
     5    10     5    1
     6    18     9    1
     7     5     9   ar
     8     5     3   ar
     9     6    13    1
    10     6     3    1
    11     6    12    1
    12     9     7   ar
    13    24    12    1
    14    23    12    1
    15     3     2   ar
    16    12    22    1
    17     7    14    1
    18     7     4   ar
    19     2     4   ar
    20     2     1    1
    21     4     8    1
    22    25    15    1
    23     8    17    1
    24     8    15    1
    25     8    16    1
    26    15    26    1
    27    15    27    1
    28    28    16    1
    29    30    16    1
    30    16    29    1
