@<TRIPOS>MOLECULE
1
 30 30 0 0 0
SMALL
GASTEIGER

@<TRIPOS>ATOM
      1 N           1.6372    0.0773   -0.6847 N.pl3   1  UNL1       -0.1288
      2 C           2.7826   -0.0204   -1.3694 C.ar    1  UNL1        0.0792
      3 C           2.9430    0.6379   -2.6158 C.ar    1  UNL1       -0.0200
      4 C           4.1389    0.4905   -3.2928 C.ar    1  UNL1       -0.0564
      5 C           5.1722   -0.2684   -2.7687 C.ar    1  UNL1       -0.0611
      6 C           5.0246   -0.8917   -1.5412 C.ar    1  UNL1       -0.0564
      7 C           3.8444   -0.7906   -0.8297 C.ar    1  UNL1       -0.0200
      8 C           1.8251    1.5179   -3.1180 C.3     1  UNL1       -0.0196
      9 C           1.7885    1.6719   -4.6358 C.3     1  UNL1       -0.0586
     10 C           1.9402    2.8912   -2.4460 C.3     1  UNL1       -0.0586
     11 C           3.6574   -1.4138    0.5328 C.3     1  UNL1       -0.0196
     12 C           4.4691   -2.6884    0.7440 C.3     1  UNL1       -0.0586
     13 C           3.9981   -0.3769    1.6090 C.3     1  UNL1       -0.0586
     14 H           4.2793    0.9804   -4.2433 H       1  UNL1        0.0621
     15 H           6.0994   -0.3655   -3.3135 H       1  UNL1        0.0618
     16 H           5.8446   -1.4666   -1.1408 H       1  UNL1        0.0621
     17 H           0.8765    1.0712   -2.7938 H       1  UNL1        0.0344
     18 H           0.8773    2.1929   -4.9203 H       1  UNL1        0.0235
     19 H           2.6322    2.2561   -4.9954 H       1  UNL1        0.0235
     20 H           1.7974    0.7004   -5.1231 H       1  UNL1        0.0235
     21 H           1.8885    2.7794   -1.3658 H       1  UNL1        0.0235
     22 H           2.8853    3.3634   -2.7072 H       1  UNL1        0.0235
     23 H           1.1227    3.5337   -2.7637 H       1  UNL1        0.0235
     24 H           2.5936   -1.6681    0.6375 H       1  UNL1        0.0344
     25 H           4.3024   -3.3896   -0.0708 H       1  UNL1        0.0235
     26 H           5.5327   -2.4720    0.8116 H       1  UNL1        0.0235
     27 H           4.1658   -3.1589    1.6769 H       1  UNL1        0.0235
     28 H           3.3726    0.5057    1.4900 H       1  UNL1        0.0235
     29 H           3.8293   -0.7893    2.6016 H       1  UNL1        0.0235
     30 H           5.0404   -0.0735    1.5267 H       1  UNL1        0.0235
@<TRIPOS>BOND
     1    20     9    1
     2    19     9    1
     3    18     9    1
     4     9     8    1
     5    14     4    1
     6    15     5    1
     7     4     5   ar
     8     4     3   ar
     9     8    17    1
    10     8     3    1
    11     8    10    1
    12     5     6   ar
    13    23    10    1
    14    22    10    1
    15     3     2   ar
    16    10    21    1
    17     6    16    1
    18     6     7   ar
    19     2     7   ar
    20     2     1    1
    21     7    11    1
    22    25    12    1
    23    11    24    1
    24    11    12    1
    25    11    13    1
    26    12    26    1
    27    12    27    1
    28    28    13    1
    29    30    13    1
    30    13    29    1
