@<TRIPOS>MOLECULE
1
 14 13 0 0 0
SMALL
GASTEIGER

@<TRIPOS>ATOM
      1 N          -0.6175   10.5228    7.3207 N.3     1  UNL1       -0.1371
      2 C           0.7315   10.7250    7.6856 C.3     1  UNL1        0.0466
      3 C           0.9345   10.2846    9.1472 C.3     1  UNL1       -0.0443
      4 C           1.6406    9.8982    6.7604 C.3     1  UNL1       -0.0443
      5 C           1.0611   12.2222    7.5412 C.3     1  UNL1       -0.0443
      6 H           0.7053    9.2270    9.2499 H       1  UNL1        0.0248
      7 H           0.2616   10.8483    9.7884 H       1  UNL1        0.0248
      8 H           1.9614   10.4578    9.4583 H       1  UNL1        0.0248
      9 H           1.4587   10.1700    5.7236 H       1  UNL1        0.0248
     10 H           1.4322    8.8387    6.8857 H       1  UNL1        0.0248
     11 H           2.6844   10.0848    6.9995 H       1  UNL1        0.0248
     12 H           1.0178   12.5103    6.4954 H       1  UNL1        0.0248
     13 H           2.0549   12.4272    7.9296 H       1  UNL1        0.0248
     14 H           0.3227   12.8011    8.0912 H       1  UNL1        0.0248
@<TRIPOS>BOND
     1     9     4    1
     2    12     5    1
     3     4    10    1
     4     4    11    1
     5     4     2    1
     6     1     2    1
     7     5     2    1
     8     5    13    1
     9     5    14    1
    10     2     3    1
    11     3     6    1
    12     3     8    1
    13     3     7    1
