@<TRIPOS>MOLECULE
1
 18 18 0 0 0
SMALL
GASTEIGER

@<TRIPOS>ATOM
      1 N          -1.8961    3.2834   -4.6757 N.pl3   1  UNL1       -0.1288
      2 C          -1.0509    4.2983   -4.8785 C.ar    1  UNL1        0.0782
      3 C          -0.1368    4.2378   -5.9585 C.ar    1  UNL1       -0.0257
      4 C          -0.1540    3.0399   -6.8554 C.3     1  UNL1       -0.0378
      5 C           0.7307    5.2930   -6.1654 C.ar    1  UNL1       -0.0570
      6 C           0.7256    6.3962   -5.3272 C.ar    1  UNL1       -0.0611
      7 C          -0.1661    6.4558   -4.2686 C.ar    1  UNL1       -0.0570
      8 C          -1.0637    5.4321   -4.0294 C.ar    1  UNL1       -0.0257
      9 C          -2.0477    5.4946   -2.9056 C.3     1  UNL1       -0.0378
     10 H          -0.1186    2.1216   -6.2683 H       1  UNL1        0.0278
     11 H          -1.0754    3.0136   -7.4387 H       1  UNL1        0.0278
     12 H           0.6883    3.0528   -7.5423 H       1  UNL1        0.0278
     13 H           1.4252    5.2490   -6.9920 H       1  UNL1        0.0621
     14 H           1.4146    7.2089   -5.5002 H       1  UNL1        0.0618
     15 H          -0.1696    7.3190   -3.6189 H       1  UNL1        0.0621
     16 H          -1.7912    6.2867   -2.2077 H       1  UNL1        0.0278
     17 H          -3.0493    5.6817   -3.2936 H       1  UNL1        0.0278
     18 H          -2.0880    4.5380   -2.3807 H       1  UNL1        0.0278
@<TRIPOS>BOND
     1    12     4    1
     2    11     4    1
     3    13     5    1
     4     4    10    1
     5     4     3    1
     6     5     3   ar
     7     5     6   ar
     8     3     2   ar
     9    14     6    1
    10     6     7   ar
    11     2     1    1
    12     2     8   ar
    13     7     8   ar
    14     7    15    1
    15     8     9    1
    16    17     9    1
    17     9    18    1
    18     9    16    1
