@<TRIPOS>MOLECULE
1
 18 18 0 0 0
SMALL
GASTEIGER

@<TRIPOS>ATOM
      1 N          -4.1927    2.6845   -3.0999 N.pl3   1  UNL1       -0.1288
      2 C          -4.9475    3.4211   -2.2770 C.ar    1  UNL1        0.0782
      3 C          -5.9678    4.2459   -2.8091 C.ar    1  UNL1       -0.0257
      4 C          -6.1884    4.2608   -4.2891 C.3     1  UNL1       -0.0378
      5 C          -6.7415    5.0010   -1.9482 C.ar    1  UNL1       -0.0570
      6 C          -6.5214    4.9718   -0.5807 C.ar    1  UNL1       -0.0611
      7 C          -5.5154    4.1748   -0.0584 C.ar    1  UNL1       -0.0570
      8 C          -4.7255    3.3911   -0.8783 C.ar    1  UNL1       -0.0257
      9 C          -3.6436    2.5168   -0.3309 C.3     1  UNL1       -0.0378
     10 H          -5.2306    4.2998   -4.8101 H       1  UNL1        0.0278
     11 H          -6.6965    3.3481   -4.6038 H       1  UNL1        0.0278
     12 H          -6.7958    5.1128   -4.5840 H       1  UNL1        0.0278
     13 H          -7.5235    5.6271   -2.3533 H       1  UNL1        0.0621
     14 H          -7.1322    5.5715    0.0770 H       1  UNL1        0.0618
     15 H          -5.3450    4.1580    1.0084 H       1  UNL1        0.0621
     16 H          -3.4544    2.7407    0.7152 H       1  UNL1        0.0278
     17 H          -3.9293    1.4688   -0.4188 H       1  UNL1        0.0278
     18 H          -2.7245    2.6433   -0.9065 H       1  UNL1        0.0278
@<TRIPOS>BOND
     1    10     4    1
     2    11     4    1
     3    12     4    1
     4     4     3    1
     5     1     2    1
     6     3     2   ar
     7     3     5   ar
     8    13     5    1
     9     2     8   ar
    10     5     6   ar
    11    18     9    1
    12     8     9    1
    13     8     7   ar
    14     6     7   ar
    15     6    14    1
    16    17     9    1
    17     9    16    1
    18     7    15    1
