@<TRIPOS>MOLECULE
1
 14 13 0 0 0
SMALL
GASTEIGER

@<TRIPOS>ATOM
      1 N          -2.7768   11.8117    5.9927 N.3     1  UNL1       -0.1371
      2 C          -2.8963   12.9610    5.1830 C.3     1  UNL1        0.0466
      3 C          -3.8638   13.9600    5.8438 C.3     1  UNL1       -0.0443
      4 C          -1.5117   13.6114    5.0164 C.3     1  UNL1       -0.0443
      5 C          -3.4443   12.5371    3.8086 C.3     1  UNL1       -0.0443
      6 H          -4.8350   13.4943    5.9889 H       1  UNL1        0.0248
      7 H          -3.9812   14.8421    5.2201 H       1  UNL1        0.0248
      8 H          -3.4703   14.2545    6.8134 H       1  UNL1        0.0248
      9 H          -0.8299   12.9060    4.5496 H       1  UNL1        0.0248
     10 H          -1.1216   13.8729    5.9966 H       1  UNL1        0.0248
     11 H          -1.5841   14.5036    4.4004 H       1  UNL1        0.0248
     12 H          -2.7740   11.8155    3.3487 H       1  UNL1        0.0248
     13 H          -3.5346   13.4042    3.1594 H       1  UNL1        0.0248
     14 H          -4.4226   12.0772    3.9236 H       1  UNL1        0.0248
@<TRIPOS>BOND
     1    13     5    1
     2    12     5    1
     3     5    14    1
     4     5     2    1
     5    11     4    1
     6     9     4    1
     7     4     2    1
     8     4    10    1
     9     2     3    1
    10     2     1    1
    11     7     3    1
    12     3     6    1
    13     3     8    1
