@<TRIPOS>MOLECULE
1
 14 13 0 0 0
SMALL
GASTEIGER

@<TRIPOS>ATOM
      1 N          -2.9682   11.1888    8.7571 N.3     1  UNL1       -0.1371
      2 C          -3.3297   11.9817    9.8681 C.3     1  UNL1        0.0466
      3 C          -2.3252   13.1452    9.9733 C.3     1  UNL1       -0.0443
      4 C          -4.7503   12.5381    9.6648 C.3     1  UNL1       -0.0443
      5 C          -3.2806   11.1306   11.1489 C.3     1  UNL1       -0.0443
      6 H          -2.2749   13.6580    9.0152 H       1  UNL1        0.0248
      7 H          -1.3371   12.7590   10.2071 H       1  UNL1        0.0248
      8 H          -2.6330   13.8406   10.7492 H       1  UNL1        0.0248
      9 H          -4.7801   13.1354    8.7578 H       1  UNL1        0.0248
     10 H          -5.0408   13.1530   10.5126 H       1  UNL1        0.0248
     11 H          -5.4568   11.7183    9.5633 H       1  UNL1        0.0248
     12 H          -4.0176   10.3336   11.0926 H       1  UNL1        0.0248
     13 H          -3.4934   11.7484   12.0175 H       1  UNL1        0.0248
     14 H          -2.2948   10.6857   11.2604 H       1  UNL1        0.0248
@<TRIPOS>BOND
     1     1     2    1
     2     9     4    1
     3     6     3    1
     4    11     4    1
     5     4     2    1
     6     4    10    1
     7     2     3    1
     8     2     5    1
     9     3     7    1
    10     3     8    1
    11    12     5    1
    12     5    14    1
    13     5    13    1
