@<TRIPOS>MOLECULE
1
 18 18 0 0 0
SMALL
GASTEIGER

@<TRIPOS>ATOM
      1 N          -1.9596    0.9392   -3.0034 N.pl3   1  UNL1       -0.1288
      2 C          -1.1873    0.3348   -2.0952 C.ar    1  UNL1        0.0782
      3 C          -1.6235   -0.8704   -1.4940 C.ar    1  UNL1       -0.0257
      4 C          -2.9424   -1.4537   -1.8937 C.3     1  UNL1       -0.0378
      5 C          -0.8016   -1.4989   -0.5769 C.ar    1  UNL1       -0.0570
      6 C           0.4279   -0.9618   -0.2332 C.ar    1  UNL1       -0.0611
      7 C           0.8558    0.2191   -0.8193 C.ar    1  UNL1       -0.0570
      8 C           0.0753    0.8770   -1.7502 C.ar    1  UNL1       -0.0257
      9 C           0.5174    2.1444   -2.4062 C.3     1  UNL1       -0.0378
     10 H          -3.6650   -0.6599   -2.0834 H       1  UNL1        0.0278
     11 H          -2.8395   -2.0303   -2.8149 H       1  UNL1        0.0278
     12 H          -3.3244   -2.1158   -1.1204 H       1  UNL1        0.0278
     13 H          -1.1316   -2.4215   -0.1215 H       1  UNL1        0.0621
     14 H           1.0536   -1.4641    0.4889 H       1  UNL1        0.0618
     15 H           1.8176    0.6325   -0.5519 H       1  UNL1        0.0621
     16 H           1.5023    2.4426   -2.0580 H       1  UNL1        0.0278
     17 H           0.5431    2.0153   -3.4888 H       1  UNL1        0.0278
     18 H          -0.1952    2.9448   -2.2027 H       1  UNL1        0.0278
@<TRIPOS>BOND
     1    17     9    1
     2     1     2    1
     3    11     4    1
     4     9    18    1
     5     9    16    1
     6     9     8    1
     7     2     8   ar
     8     2     3   ar
     9    10     4    1
    10     4     3    1
    11     4    12    1
    12     8     7   ar
    13     3     5   ar
    14     7    15    1
    15     7     6   ar
    16     5     6   ar
    17     5    13    1
    18     6    14    1
