@<TRIPOS>MOLECULE
1
 14 13 0 0 0
SMALL
GASTEIGER

@<TRIPOS>ATOM
      1 N           9.4319    2.4704   20.2702 N.3     1  UNL1       -0.1371
      2 C           9.8711    1.9821   21.5237 C.3     1  UNL1        0.0466
      3 C          11.3623    2.3223   21.7577 C.3     1  UNL1       -0.0443
      4 C           9.7158    0.4405   21.6157 C.3     1  UNL1       -0.0443
      5 C           9.0540    2.5759   22.6931 C.3     1  UNL1       -0.0443
      6 H          11.7192    1.8577   22.6747 H       1  UNL1        0.0248
      7 H          11.4775    3.3988   21.8384 H       1  UNL1        0.0248
      8 H          11.9683    1.9658   20.9245 H       1  UNL1        0.0248
      9 H           9.9583    0.1027   22.6212 H       1  UNL1        0.0248
     10 H          10.3890   -0.0607   20.9218 H       1  UNL1        0.0248
     11 H           8.6840    0.1721   21.3988 H       1  UNL1        0.0248
     12 H           9.3360    2.0982   23.6300 H       1  UNL1        0.0248
     13 H           9.2397    3.6413   22.7750 H       1  UNL1        0.0248
     14 H           7.9954    2.4113   22.5096 H       1  UNL1        0.0248
@<TRIPOS>BOND
     1     1     2    1
     2    10     4    1
     3     8     3    1
     4    11     4    1
     5     2     4    1
     6     2     3    1
     7     2     5    1
     8     4     9    1
     9     3     7    1
    10     3     6    1
    11    14     5    1
    12     5    13    1
    13     5    12    1
