@<TRIPOS>MOLECULE
1
 44 46 0 0 0
SMALL
GASTEIGER

@<TRIPOS>ATOM
      1 N           5.9626    3.3266    4.3161 N.3     1  UNL1        0.0000
      2 SI          6.0588    4.9505    4.8257 Si      1  UNL1        0.0000
      3 C           5.3667    4.9915    6.6075 C.ar    1  UNL1        0.0000
      4 C           5.8055    5.7659    7.6817 C.ar    1  UNL1        0.0000
      5 C           5.1689    5.6480    8.9154 C.ar    1  UNL1        0.0000
      6 C           4.1059    4.7873    9.1019 C.ar    1  UNL1        0.0000
      7 C           3.6687    4.0100    8.0422 C.ar    1  UNL1        0.0000
      8 C           4.3037    4.1147    6.8204 C.ar    1  UNL1        0.0000
      9 C           6.9429    6.7394    7.5875 C.3     1  UNL1        0.0000
     10 C           7.8147    5.6540    4.5953 C.ar    1  UNL1        0.0000
     11 C           8.9300    5.0552    5.1895 C.ar    1  UNL1        0.0000
     12 C          10.1951    5.5733    4.9515 C.ar    1  UNL1        0.0000
     13 C          10.3738    6.6746    4.1323 C.ar    1  UNL1        0.0000
     14 C           9.2759    7.2688    3.5371 C.ar    1  UNL1        0.0000
     15 C           8.0122    6.7546    3.7685 C.ar    1  UNL1        0.0000
     16 C           8.7547    3.8607    6.0684 C.3     1  UNL1        0.0000
     17 C           4.9584    5.9662    3.6347 C.ar    1  UNL1        0.0000
     18 C           4.4066    7.2229    3.8917 C.ar    1  UNL1        0.0000
     19 C           3.6633    7.8589    2.9047 C.ar    1  UNL1        0.0000
     20 C           3.4665    7.2776    1.6651 C.ar    1  UNL1        0.0000
     21 C           4.0121    6.0337    1.4020 C.ar    1  UNL1        0.0000
     22 C           4.7435    5.3938    2.3859 C.ar    1  UNL1        0.0000
     23 C           4.6186    7.9028    5.2083 C.3     1  UNL1        0.0000
     24 H           5.5188    6.2515    9.7421 H       1  UNL1        0.0000
     25 H           3.6239    4.7192   10.0667 H       1  UNL1        0.0000
     26 H           2.8390    3.3297    8.1765 H       1  UNL1        0.0000
     27 H           3.9963    3.4937    5.9879 H       1  UNL1        0.0000
     28 H           7.3707    6.7692    6.5919 H       1  UNL1        0.0000
     29 H           7.7288    6.4638    8.2911 H       1  UNL1        0.0000
     30 H           6.6010    7.7391    7.8554 H       1  UNL1        0.0000
     31 H          11.0547    5.1058    5.4119 H       1  UNL1        0.0000
     32 H          11.3663    7.0651    3.9582 H       1  UNL1        0.0000
     33 H           9.4017    8.1273    2.8926 H       1  UNL1        0.0000
     34 H           7.1586    7.2174    3.2925 H       1  UNL1        0.0000
     35 H           8.1454    4.1087    6.9359 H       1  UNL1        0.0000
     36 H           9.7139    3.4774    6.4081 H       1  UNL1        0.0000
     37 H           8.2363    3.0790    5.5139 H       1  UNL1        0.0000
     38 H           3.2359    8.8316    3.1082 H       1  UNL1        0.0000
     39 H           2.8915    7.7938    0.9096 H       1  UNL1        0.0000
     40 H           3.8649    5.5725    0.4344 H       1  UNL1        0.0000
     41 H           5.1641    4.4075    2.2121 H       1  UNL1        0.0000
     42 H           4.2561    7.2791    6.0226 H       1  UNL1        0.0000
     43 H           4.0988    8.8579    5.2395 H       1  UNL1        0.0000
     44 H           5.6796    8.0798    5.3718 H       1  UNL1        0.0000
@<TRIPOS>BOND
     1    40    21    1
     2    39    20    1
     3    21    20   ar
     4    21    22   ar
     5    20    19   ar
     6    41    22    1
     7    22    17   ar
     8    33    14    1
     9    19    38    1
    10    19    18   ar
    11    34    15    1
    12    14    15   ar
    13    14    13   ar
    14    17    18   ar
    15    17     2    1
    16    15    10   ar
    17    18    23    1
    18    32    13    1
    19    13    12   ar
    20     1     2    1
    21    10     2    1
    22    10    11   ar
    23     2     3    1
    24    12    11   ar
    25    12    31    1
    26    11    16    1
    27    23    43    1
    28    23    44    1
    29    23    42    1
    30    37    16    1
    31    27     8    1
    32    16    36    1
    33    16    35    1
    34    28     9    1
    35     3     8   ar
    36     3     4   ar
    37     8     7   ar
    38     9     4    1
    39     9    30    1
    40     9    29    1
    41     4     5   ar
    42     7    26    1
    43     7     6   ar
    44     5     6   ar
    45     5    24    1
    46     6    25    1
