@<TRIPOS>MOLECULE
1
 50 50 0 0 0
SMALL
GASTEIGER

@<TRIPOS>ATOM
      1 N           3.2788    2.6488    2.1477 N.pl3   1  UNL1        0.0000
      2 N           1.0851   -1.1050    5.6254 N.pl3   1  UNL1        0.0000
      3 SI         -0.3781   -0.5541    6.4237 Si      1  UNL1        0.0000
      4 SI          1.8861   -2.6559    5.8053 Si      1  UNL1        0.0000
      5 C           1.8920    0.7332    2.5002 C.ar    1  UNL1        0.0000
      6 C           1.3297   -0.1862    3.3764 C.ar    1  UNL1        0.0000
      7 C           1.6857   -0.1798    4.7287 C.ar    1  UNL1        0.0000
      8 C           2.6249    0.7422    5.2007 C.ar    1  UNL1        0.0000
      9 C           3.1823    1.6763    4.3369 C.ar    1  UNL1        0.0000
     10 C           2.8067    1.7011    2.9753 C.ar    1  UNL1        0.0000
     11 C           1.5164    0.7250    1.0484 C.3     1  UNL1        0.0000
     12 H           1.6174   -0.2762    0.6341 H       1  UNL1        0.0000
     13 H           2.1571    1.4088    0.4891 H       1  UNL1        0.0000
     14 H           0.4799    1.0367    0.9197 H       1  UNL1        0.0000
     15 C           0.3325   -1.1776    2.8543 C.3     1  UNL1        0.0000
     16 H          -0.4507   -0.6722    2.2922 H       1  UNL1        0.0000
     17 H          -0.1170   -1.7266    3.6731 H       1  UNL1        0.0000
     18 H           0.8177   -1.8864    2.1837 H       1  UNL1        0.0000
     19 C           3.0365    0.7458    6.6426 C.3     1  UNL1        0.0000
     20 H           2.5471   -0.0595    7.1771 H       1  UNL1        0.0000
     21 H           2.7727    1.6936    7.1100 H       1  UNL1        0.0000
     22 H           4.1149    0.6231    6.7318 H       1  UNL1        0.0000
     23 C           4.1823    2.6732    4.8408 C.3     1  UNL1        0.0000
     24 H           4.5728    3.2621    4.0118 H       1  UNL1        0.0000
     25 H           5.0115    2.1675    5.3327 H       1  UNL1        0.0000
     26 H           3.7218    3.3430    5.5663 H       1  UNL1        0.0000
     27 C          -1.0165    0.9808    5.4969 C.3     1  UNL1        0.0000
     28 H          -0.2543    1.7515    5.4491 H       1  UNL1        0.0000
     29 H          -1.8847    1.4009    5.9943 H       1  UNL1        0.0000
     30 H          -1.3011    0.7461    4.4775 H       1  UNL1        0.0000
     31 C          -0.0861   -0.0718    8.2503 C.3     1  UNL1        0.0000
     32 H           0.4748    0.8527    8.3403 H       1  UNL1        0.0000
     33 H           0.4541   -0.8400    8.7929 H       1  UNL1        0.0000
     34 H          -1.0357    0.0750    8.7561 H       1  UNL1        0.0000
     35 C          -1.6862   -1.9411    6.3945 C.3     1  UNL1        0.0000
     36 H          -1.3340   -2.8279    6.9101 H       1  UNL1        0.0000
     37 H          -1.9587   -2.2302    5.3847 H       1  UNL1        0.0000
     38 H          -2.5922   -1.6129    6.8934 H       1  UNL1        0.0000
     39 C           0.9739   -4.0690    4.8965 C.3     1  UNL1        0.0000
     40 H          -0.0891   -4.0727    5.1123 H       1  UNL1        0.0000
     41 H           1.3706   -5.0316    5.2050 H       1  UNL1        0.0000
     42 H           1.0918   -4.0006    3.8199 H       1  UNL1        0.0000
     43 C           1.9742   -3.1189    7.6530 C.3     1  UNL1        0.0000
     44 H           0.9836   -3.2042    8.0866 H       1  UNL1        0.0000
     45 H           2.5296   -2.3902    8.2346 H       1  UNL1        0.0000
     46 H           2.4677   -4.0773    7.7775 H       1  UNL1        0.0000
     47 C           3.6371   -2.5065    5.0769 C.3     1  UNL1        0.0000
     48 H           4.2530   -1.8199    5.6469 H       1  UNL1        0.0000
     49 H           3.6039   -2.1394    4.0565 H       1  UNL1        0.0000
     50 H           4.1373   -3.4697    5.0685 H       1  UNL1        0.0000
@<TRIPOS>BOND
     1    13    11    1
     2    12    11    1
     3    14    11    1
     4    11     5    1
     5     1    10    1
     6    18    15    1
     7    16    15    1
     8     5    10   ar
     9     5     6   ar
    10    15     6    1
    11    15    17    1
    12    10     9   ar
    13     6     7   ar
    14    42    39    1
    15    24    23    1
    16    49    47    1
    17     9    23    1
    18     9     8   ar
    19    30    27    1
    20     7     8   ar
    21     7     2    1
    22    23    25    1
    23    23    26    1
    24    39    40    1
    25    39    41    1
    26    39     4    1
    27    50    47    1
    28    47    48    1
    29    47     4    1
    30     8    19    1
    31    37    35    1
    32    28    27    1
    33    27    29    1
    34    27     3    1
    35     2     4    1
    36     2     3    1
    37     4    43    1
    38    35     3    1
    39    35    38    1
    40    35    36    1
    41     3    31    1
    42    19    22    1
    43    19    21    1
    44    19    20    1
    45    43    46    1
    46    43    44    1
    47    43    45    1
    48    31    32    1
    49    31    34    1
    50    31    33    1
