@<TRIPOS>MOLECULE
1
 29 29 0 0 0
SMALL
GASTEIGER

@<TRIPOS>ATOM
      1 N           1.7366    6.2396   -3.2640 N.3     1  UNL1       -0.0377
      2 N           0.5721    5.8272   -3.4968 N.3     1  UNL1       -0.1965
      3 C          -0.5272    6.8260   -3.4500 C.3     1  UNL1        0.0343
      4 C          -1.8217    6.2593   -4.0394 C.3     1  UNL1       -0.0335
      5 C          -2.1189    4.8495   -3.5548 C.3     1  UNL1       -0.0497
      6 C          -0.9969    3.9435   -4.0339 C.3     1  UNL1       -0.0335
      7 C           0.3751    4.3562   -3.4923 C.3     1  UNL1        0.0343
      8 C          -0.7179    7.2504   -1.9897 C.3     1  UNL1       -0.0454
      9 C          -0.0932    8.0356   -4.2841 C.3     1  UNL1       -0.0454
     10 C           1.4590    3.7728   -4.4033 C.3     1  UNL1       -0.0454
     11 C           0.5666    3.8741   -2.0494 C.3     1  UNL1       -0.0454
     12 H          -1.7439    6.2454   -5.1288 H       1  UNL1        0.0283
     13 H          -2.6354    6.9349   -3.7721 H       1  UNL1        0.0283
     14 H          -3.0695    4.5088   -3.9677 H       1  UNL1        0.0266
     15 H          -2.2033    4.8240   -2.4686 H       1  UNL1        0.0266
     16 H          -0.9759    3.9710   -5.1252 H       1  UNL1        0.0283
     17 H          -1.1797    2.9113   -3.7317 H       1  UNL1        0.0283
     18 H           0.2399    7.5293   -1.5539 H       1  UNL1        0.0248
     19 H          -1.3841    8.1076   -1.9375 H       1  UNL1        0.0248
     20 H          -1.1385    6.4476   -1.3908 H       1  UNL1        0.0248
     21 H           0.7349    8.5615   -3.8121 H       1  UNL1        0.0248
     22 H           0.2199    7.7228   -5.2786 H       1  UNL1        0.0248
     23 H          -0.9225    8.7319   -4.3799 H       1  UNL1        0.0248
     24 H           1.3164    4.1160   -5.4251 H       1  UNL1        0.0248
     25 H           2.4406    4.1051   -4.0775 H       1  UNL1        0.0248
     26 H           1.4181    2.6876   -4.3880 H       1  UNL1        0.0248
     27 H           1.4264    4.3732   -1.6057 H       1  UNL1        0.0248
     28 H          -0.3054    4.1010   -1.4431 H       1  UNL1        0.0248
     29 H           0.7297    2.8001   -2.0288 H       1  UNL1        0.0248
@<TRIPOS>BOND
     1    24    10    1
     2    22     9    1
     3    12     4    1
     4    16     6    1
     5    10    26    1
     6    10    25    1
     7    10     7    1
     8    23     9    1
     9     9    21    1
    10     9     3    1
    11     4    13    1
    12     4     5    1
    13     4     3    1
    14     6    17    1
    15     6     5    1
    16     6     7    1
    17    14     5    1
    18     5    15    1
    19     2     7    1
    20     2     3    1
    21     2     1    1
    22     7    11    1
    23     3     8    1
    24    11    29    1
    25    11    27    1
    26    11    28    1
    27     8    19    1
    28     8    18    1
    29     8    20    1
