@<TRIPOS>MOLECULE
1
 29 29 0 0 0
SMALL
GASTEIGER

@<TRIPOS>ATOM
      1 N           4.4664    6.0211   -2.7379 N.3     1  UNL1       -0.0377
      2 N           5.5844    5.4763   -2.5506 N.3     1  UNL1       -0.1965
      3 C           6.7822    6.3554   -2.5148 C.3     1  UNL1        0.0343
      4 C           7.9795    5.6315   -1.8924 C.3     1  UNL1       -0.0335
      5 C           8.1704    4.2293   -2.4469 C.3     1  UNL1       -0.0497
      6 C           6.9351    3.4142   -2.1024 C.3     1  UNL1       -0.0335
      7 C           5.6457    4.0003   -2.6858 C.3     1  UNL1        0.0343
      8 C           7.0845    6.8118   -3.9467 C.3     1  UNL1       -0.0454
      9 C           6.4465    7.5764   -1.6522 C.3     1  UNL1       -0.0454
     10 C           4.4600    3.4379   -1.8975 C.3     1  UNL1       -0.0454
     11 C           5.4988    3.6608   -4.1738 C.3     1  UNL1       -0.0454
     12 H           7.8341    5.5645   -0.8118 H       1  UNL1        0.0283
     13 H           8.8688    6.2371   -2.0726 H       1  UNL1        0.0283
     14 H           9.0515    3.7703   -1.9958 H       1  UNL1        0.0266
     15 H           8.3301    4.2579   -3.5246 H       1  UNL1        0.0266
     16 H           6.8450    3.3691   -1.0150 H       1  UNL1        0.0283
     17 H           7.0350    2.3919   -2.4702 H       1  UNL1        0.0283
     18 H           7.4564    5.9960   -4.5593 H       1  UNL1        0.0248
     19 H           6.1807    7.1993   -4.4149 H       1  UNL1        0.0248
     20 H           7.8331    7.5999   -3.9310 H       1  UNL1        0.0248
     21 H           6.0298    7.2685   -0.6944 H       1  UNL1        0.0248
     22 H           7.3473    8.1577   -1.4716 H       1  UNL1        0.0248
     23 H           5.7266    8.2257   -2.1506 H       1  UNL1        0.0248
     24 H           4.5178    3.7489   -0.8573 H       1  UNL1        0.0248
     25 H           3.5266    3.8103   -2.3055 H       1  UNL1        0.0248
     26 H           4.4662    2.3526   -1.9419 H       1  UNL1        0.0248
     27 H           4.7183    4.2778   -4.6153 H       1  UNL1        0.0248
     28 H           6.4228    3.8445   -4.7136 H       1  UNL1        0.0248
     29 H           5.2328    2.6141   -4.2943 H       1  UNL1        0.0248
@<TRIPOS>BOND
     1    28    11    1
     2    27    11    1
     3    18     8    1
     4    19     8    1
     5    29    11    1
     6    11     7    1
     7     8    20    1
     8     8     3    1
     9    15     5    1
    10     1     2    1
    11     7     2    1
    12     7     6    1
    13     7    10    1
    14     2     3    1
    15     3     4    1
    16     3     9    1
    17    17     6    1
    18     5     6    1
    19     5    14    1
    20     5     4    1
    21    25    10    1
    22    23     9    1
    23     6    16    1
    24    13     4    1
    25    26    10    1
    26    10    24    1
    27     4    12    1
    28     9    22    1
    29     9    21    1
