@<TRIPOS>MOLECULE
1
 29 29 0 0 0
SMALL
GASTEIGER

@<TRIPOS>ATOM
      1 N           1.8473   -0.9174    5.8676 N.3     1  UNL1       -0.0377
      2 N           2.5692   -1.0126    6.9041 N.3     1  UNL1       -0.1965
      3 C           2.9727    0.2560    7.5497 C.3     1  UNL1        0.0343
      4 C           4.0707    0.0478    8.5953 C.3     1  UNL1       -0.0335
      5 C           3.8006   -1.1547    9.4863 C.3     1  UNL1       -0.0497
      6 C           3.7651   -2.3962    8.6091 C.3     1  UNL1       -0.0335
      7 C           2.6659   -2.3431    7.5437 C.3     1  UNL1        0.0343
      8 C           1.7157    0.8802    8.1671 C.3     1  UNL1       -0.0454
      9 C           3.4856    1.1764    6.4364 C.3     1  UNL1       -0.0454
     10 C           1.2895   -2.6770    8.1320 C.3     1  UNL1       -0.0454
     11 C           2.9931   -3.3498    6.4354 C.3     1  UNL1       -0.0454
     12 H           4.1477    0.9578    9.1922 H       1  UNL1        0.0283
     13 H           5.0279   -0.1004    8.0895 H       1  UNL1        0.0283
     14 H           2.8596   -1.0339   10.0221 H       1  UNL1        0.0266
     15 H           4.5938   -1.2504   10.2296 H       1  UNL1        0.0266
     16 H           3.6030   -3.2881    9.2159 H       1  UNL1        0.0283
     17 H           4.7354   -2.5012    8.1176 H       1  UNL1        0.0283
     18 H           1.9238    1.8967    8.4903 H       1  UNL1        0.0248
     19 H           0.9241    0.9030    7.4158 H       1  UNL1        0.0248
     20 H           1.3617    0.3093    9.0206 H       1  UNL1        0.0248
     21 H           4.3220    0.7141    5.9156 H       1  UNL1        0.0248
     22 H           2.6833    1.3665    5.7202 H       1  UNL1        0.0248
     23 H           3.8161    2.1203    6.8608 H       1  UNL1        0.0248
     24 H           0.5198   -2.4962    7.3796 H       1  UNL1        0.0248
     25 H           1.2515   -3.7242    8.4196 H       1  UNL1        0.0248
     26 H           1.0671   -2.0673    9.0031 H       1  UNL1        0.0248
     27 H           2.1705   -3.4047    5.7240 H       1  UNL1        0.0248
     28 H           3.8977   -3.0535    5.9080 H       1  UNL1        0.0248
     29 H           3.1467   -4.3345    6.8679 H       1  UNL1        0.0248
@<TRIPOS>BOND
     1    22     9    1
     2    27    11    1
     3     1     2    1
     4    28    11    1
     5    21     9    1
     6    11    29    1
     7    11     7    1
     8     9    23    1
     9     9     3    1
    10     2     7    1
    11     2     3    1
    12    24    10    1
    13    19     8    1
    14     7    10    1
    15     7     6    1
    16     3     8    1
    17     3     4    1
    18    13     4    1
    19    17     6    1
    20    10    25    1
    21    10    26    1
    22     8    18    1
    23     8    20    1
    24     4    12    1
    25     4     5    1
    26     6    16    1
    27     6     5    1
    28     5    14    1
    29     5    15    1
