@<TRIPOS>MOLECULE
1
 29 29 0 0 0
SMALL
GASTEIGER

@<TRIPOS>ATOM
      1 N           1.8471   -0.9177    3.1799 N.3     1  UNL1       -0.0377
      2 N           2.5691   -1.0127    2.1434 N.3     1  UNL1       -0.1965
      3 C           2.9727    0.2560    1.4979 C.3     1  UNL1        0.0343
      4 C           2.6659   -2.3432    1.5038 C.3     1  UNL1        0.0343
      5 C           4.0706    0.0478    0.4522 C.3     1  UNL1       -0.0335
      6 C           1.7158    0.8802    0.8804 C.3     1  UNL1       -0.0454
      7 C           3.4856    1.1764    2.6111 C.3     1  UNL1       -0.0454
      8 C           3.7651   -2.3962    0.4384 C.3     1  UNL1       -0.0335
      9 C           1.2895   -2.6770    0.9155 C.3     1  UNL1       -0.0454
     10 C           2.9931   -3.3498    2.6121 C.3     1  UNL1       -0.0454
     11 C           3.8006   -1.1547   -0.4387 C.3     1  UNL1       -0.0497
     12 H           4.1476    0.9578   -0.1446 H       1  UNL1        0.0283
     13 H           5.0278   -0.1004    0.9580 H       1  UNL1        0.0283
     14 H           1.9239    1.8967    0.5572 H       1  UNL1        0.0248
     15 H           0.9242    0.9030    1.6317 H       1  UNL1        0.0248
     16 H           1.3618    0.3093    0.0270 H       1  UNL1        0.0248
     17 H           4.3220    0.7141    3.1319 H       1  UNL1        0.0248
     18 H           2.6833    1.3665    3.3273 H       1  UNL1        0.0248
     19 H           3.8162    2.1203    2.1867 H       1  UNL1        0.0248
     20 H           3.6030   -3.2881   -0.1684 H       1  UNL1        0.0283
     21 H           4.7354   -2.5012    0.9298 H       1  UNL1        0.0283
     22 H           0.5198   -2.4961    1.6680 H       1  UNL1        0.0248
     23 H           1.2515   -3.7241    0.6279 H       1  UNL1        0.0248
     24 H           1.0671   -2.0673    0.0444 H       1  UNL1        0.0248
     25 H           2.1705   -3.4047    3.3235 H       1  UNL1        0.0248
     26 H           3.8977   -3.0535    3.1395 H       1  UNL1        0.0248
     27 H           3.1467   -4.3344    2.1796 H       1  UNL1        0.0248
     28 H           2.8596   -1.0338   -0.9746 H       1  UNL1        0.0266
     29 H           4.5937   -1.2503   -1.1821 H       1  UNL1        0.0266
@<TRIPOS>BOND
     1    29    11    1
     2    28    11    1
     3    11     8    1
     4    11     5    1
     5    20     8    1
     6    12     5    1
     7    16     6    1
     8    24     9    1
     9     8    21    1
    10     8     4    1
    11     5    13    1
    12     5     3    1
    13    14     6    1
    14    23     9    1
    15     6     3    1
    16     6    15    1
    17     9     4    1
    18     9    22    1
    19     3     2    1
    20     3     7    1
    21     4     2    1
    22     4    10    1
    23     2     1    1
    24    27    10    1
    25    19     7    1
    26     7    17    1
    27     7    18    1
    28    10    26    1
    29    10    25    1
