@<TRIPOS>MOLECULE
3
 27 27 0 0 0
SMALL
GASTEIGER

@<TRIPOS>ATOM
      1 SI          1.6662   11.8542   -4.3291 Si      1  UNL1        0.0000
      2 O           1.8638   10.2374   -4.5027 O.3     1  UNL1        0.0000
      3 N           3.5427    8.6854   -4.2329 N.3     1  UNL1        0.0000
      4 C           2.6361    9.3844   -3.6900 C.3     1  UNL1        0.0000
      5 C           2.2924    9.3452   -2.2783 C.ar    1  UNL1        0.0000
      6 C           3.2936    9.1832   -1.3155 C.ar    1  UNL1        0.0000
      7 H           4.3212    9.1394   -1.6399 H       1  UNL1        0.0000
      8 C           2.9746    9.1200    0.0245 C.ar    1  UNL1        0.0000
      9 H           3.7625    9.0082    0.7562 H       1  UNL1        0.0000
     10 C           1.6533    9.2134    0.4365 C.ar    1  UNL1        0.0000
     11 H           1.4050    9.1660    1.4868 H       1  UNL1        0.0000
     12 C           0.6522    9.3696   -0.5108 C.ar    1  UNL1        0.0000
     13 H          -0.3801    9.4353   -0.1961 H       1  UNL1        0.0000
     14 C           0.9636    9.4355   -1.8533 C.ar    1  UNL1        0.0000
     15 H           0.1828    9.5375   -2.5911 H       1  UNL1        0.0000
     16 C           3.3140   12.6594   -3.7992 C.3     1  UNL1        0.0000
     17 H           3.7958   12.0348   -3.0519 H       1  UNL1        0.0000
     18 H           3.1719   13.6447   -3.3674 H       1  UNL1        0.0000
     19 H           4.0036   12.7638   -4.6320 H       1  UNL1        0.0000
     20 C           1.0902   12.4707   -6.0353 C.3     1  UNL1        0.0000
     21 H           1.9133   12.5641   -6.7344 H       1  UNL1        0.0000
     22 H           0.6343   13.4497   -5.9352 H       1  UNL1        0.0000
     23 H           0.3537   11.8080   -6.4771 H       1  UNL1        0.0000
     24 C           0.3387   12.3614   -3.0528 C.3     1  UNL1        0.0000
     25 H          -0.6168   11.8844   -3.2514 H       1  UNL1        0.0000
     26 H           0.1749   13.4344   -3.0873 H       1  UNL1        0.0000
     27 H           0.6285   12.1065   -2.0377 H       1  UNL1        0.0000
@<TRIPOS>BOND
     1    21    20    1
     2    23    20    1
     3    20    22    1
     4    20     1    1
     5    19    16    1
     6     2     1    1
     7     2     4    1
     8     1    16    1
     9     1    24    1
    10     3     4    1
    11    16    18    1
    12    16    17    1
    13     4     5    1
    14    25    24    1
    15    26    24    1
    16    24    27    1
    17    15    14    1
    18     5    14   ar
    19     5     6   ar
    20    14    12   ar
    21     7     6    1
    22     6     8   ar
    23    12    13    1
    24    12    10   ar
    25     8    10   ar
    26     8     9    1
    27    10    11    1
