@<TRIPOS>MOLECULE
2
 41 40 0 0 0
SMALL
GASTEIGER

@<TRIPOS>ATOM
      1 P           2.2893   14.4083    2.9780 P.3     1  UNL1       -0.0136
      2 N           1.4672   13.2526    2.3489 N.3     1  UNL1       -0.1188
      3 C           0.6232   14.7455    5.1591 C.3     1  UNL1       -0.0552
      4 H          -0.2403   15.2272    5.6180 H       1  UNL1        0.0239
      5 H           1.3895   14.6604    5.9235 H       1  UNL1        0.0239
      6 H           0.3272   13.7524    4.8196 H       1  UNL1        0.0239
      7 C           1.6878   16.8874    4.4472 C.3     1  UNL1       -0.0552
      8 H           0.9436   17.3980    5.0593 H       1  UNL1        0.0239
      9 H           1.9411   17.5464    3.6215 H       1  UNL1        0.0239
     10 H           2.5757   16.7375    5.0541 H       1  UNL1        0.0239
     11 C          -0.1233   15.8091    3.0756 C.3     1  UNL1       -0.0552
     12 H          -1.0023   15.9692    3.6982 H       1  UNL1        0.0239
     13 H          -0.2998   14.9325    2.4456 H       1  UNL1        0.0239
     14 H          -0.0145   16.6825    2.4422 H       1  UNL1        0.0239
     15 C           1.1022   15.5658    3.9613 C.3     1  UNL1       -0.0050
     16 C           3.5724   13.6090    4.1827 C.3     1  UNL1       -0.0050
     17 C           4.6398   12.9537    3.3058 C.3     1  UNL1       -0.0552
     18 H           5.2737   12.3077    3.9144 H       1  UNL1        0.0239
     19 H           5.2863   13.6862    2.8320 H       1  UNL1        0.0239
     20 H           4.1558   12.3416    2.5461 H       1  UNL1        0.0239
     21 C           2.8529   12.4673    4.9092 C.3     1  UNL1       -0.0552
     22 H           3.5747   11.7138    5.2231 H       1  UNL1        0.0239
     23 H           2.1338   11.9994    4.2292 H       1  UNL1        0.0239
     24 H           2.3290   12.8038    5.7972 H       1  UNL1        0.0239
     25 C           4.2404   14.5456    5.1829 C.3     1  UNL1       -0.0552
     26 H           5.0104   13.9954    5.7255 H       1  UNL1        0.0239
     27 H           3.5324   14.9245    5.9148 H       1  UNL1        0.0239
     28 H           4.7152   15.3883    4.6887 H       1  UNL1        0.0239
     29 C           3.1833   15.4252    1.6025 C.3     1  UNL1       -0.0050
     30 C           4.3409   16.2966    2.0804 C.3     1  UNL1       -0.0552
     31 H           4.6959   16.9033    1.2465 H       1  UNL1        0.0239
     32 H           5.1805   15.7047    2.4344 H       1  UNL1        0.0239
     33 H           4.0306   16.9688    2.8755 H       1  UNL1        0.0239
     34 C           3.6472   14.4370    0.5321 C.3     1  UNL1       -0.0552
     35 H           3.9354   14.9817   -0.3670 H       1  UNL1        0.0239
     36 H           2.8129   13.7718    0.2793 H       1  UNL1        0.0239
     37 H           4.4996   13.8435    0.8458 H       1  UNL1        0.0239
     38 C           2.1304   16.3043    0.9268 C.3     1  UNL1       -0.0552
     39 H           2.5438   16.7210    0.0079 H       1  UNL1        0.0239
     40 H           1.8314   17.1384    1.5532 H       1  UNL1        0.0239
     41 H           1.2579   15.7064    0.6620 H       1  UNL1        0.0239
@<TRIPOS>BOND
     1    35    34    1
     2    39    38    1
     3    36    34    1
     4    34    37    1
     5    34    29    1
     6    41    38    1
     7    38    40    1
     8    38    29    1
     9    31    30    1
    10    29    30    1
    11    29     1    1
    12    30    32    1
    13    30    33    1
    14     2     1    1
    15    14    11    1
    16    13    11    1
    17    20    17    1
    18    19    17    1
    19     1    15    1
    20     1    16    1
    21    11    12    1
    22    11    15    1
    23    17    18    1
    24    17    16    1
    25     9     7    1
    26    15     7    1
    27    15     3    1
    28    16    21    1
    29    16    25    1
    30    23    21    1
    31     7    10    1
    32     7     8    1
    33    28    25    1
    34     6     3    1
    35    21    22    1
    36    21    24    1
    37     3     4    1
    38     3     5    1
    39    25    26    1
    40    25    27    1
