@<TRIPOS>MOLECULE
1
 29 29 0 0 0
SMALL
GASTEIGER

@<TRIPOS>ATOM
      1 N          12.4044    5.0116    1.6946 N.3     1  UNL1       -0.1520
      2 N          10.6646    5.0592   -0.1385 N.4     1  UNL1        0.3993
      3 H          10.7200    6.0040   -0.5215 H       1  UNL1       -0.0817
      4 H           9.6842    4.7900   -0.0432 H       1  UNL1       -0.0817
      5 C          11.2404    5.2079    1.4958 C.3     1  UNL1        0.0560
      6 C          10.0948    5.5556    2.3232 C.ar    1  UNL1       -0.0414
      7 C           9.0484    6.3857    1.9179 C.ar    1  UNL1       -0.0586
      8 H           9.0283    6.8238    0.9299 H       1  UNL1        0.0620
      9 C           8.0277    6.6927    2.8000 C.ar    1  UNL1       -0.0615
     10 H           7.2270    7.3427    2.4830 H       1  UNL1        0.0618
     11 C           8.0279    6.1655    4.0814 C.ar    1  UNL1       -0.0617
     12 H           7.2222    6.3994    4.7594 H       1  UNL1        0.0618
     13 C           9.0639    5.3391    4.4892 C.ar    1  UNL1       -0.0615
     14 H           9.0580    4.9208    5.4840 H       1  UNL1        0.0618
     15 C          10.1007    5.0429    3.6242 C.ar    1  UNL1       -0.0586
     16 H          10.9108    4.3902    3.9223 H       1  UNL1        0.0620
     17 C          11.3457    4.1183   -1.0809 C.3     1  UNL1       -0.0739
     18 C          12.7151    4.6928   -1.4276 C.3     1  UNL1       -0.0755
     19 H          13.2999    4.8947   -0.5297 H       1  UNL1        0.0216
     20 H          12.6126    5.6169   -1.9946 H       1  UNL1        0.0216
     21 H          13.2683    3.9823   -2.0347 H       1  UNL1        0.0216
     22 C          11.4287    2.7506   -0.4137 C.3     1  UNL1       -0.0755
     23 H          12.0048    2.7925    0.5103 H       1  UNL1        0.0216
     24 H          11.9159    2.0460   -1.0807 H       1  UNL1        0.0216
     25 H          10.4343    2.3723   -0.1839 H       1  UNL1        0.0216
     26 C          10.4785    4.0350   -2.3400 C.3     1  UNL1       -0.0755
     27 H          10.9545    3.3840   -3.0668 H       1  UNL1        0.0216
     28 H          10.3538    5.0133   -2.8006 H       1  UNL1        0.0216
     29 H           9.4958    3.6235   -2.1171 H       1  UNL1        0.0216
@<TRIPOS>BOND
     1    27    26    1
     2    28    26    1
     3    26    29    1
     4    26    17    1
     5    21    18    1
     6    20    18    1
     7    18    17    1
     8    18    19    1
     9    17    22    1
    10    17     2    1
    11    24    22    1
    12     3     2    1
    13    22    25    1
    14    22    23    1
    15     2     4    1
    16     2     5    1
    17     8     7    1
    18     5     1    1
    19     5     6    1
    20     7     6   ar
    21     7     9   ar
    22     6    15   ar
    23    10     9    1
    24     9    11   ar
    25    15    16    1
    26    15    13   ar
    27    11    13   ar
    28    11    12    1
    29    13    14    1
