@<TRIPOS>MOLECULE
1
 13 13 0 0 0
SMALL
GASTEIGER

@<TRIPOS>ATOM
      1 N           1.4728    1.5276    3.8441 N.3     1  UNL1        0.0043
      2 N           0.4379    1.8984    3.3747 N.pl3   1  UNL1       -0.1308
      3 C          -0.8740    1.7076    3.6952 C.ar    1  UNL1        0.0701
      4 C          -1.8518    2.3295    2.9143 C.ar    1  UNL1       -0.0374
      5 H          -1.5475    2.9492    2.0842 H       1  UNL1        0.0637
      6 C          -3.1854    2.1432    3.2130 C.ar    1  UNL1       -0.0599
      7 H          -3.9409    2.6252    2.6094 H       1  UNL1        0.0618
      8 C          -3.5622    1.3427    4.2816 C.ar    1  UNL1       -0.0616
      9 H          -4.6084    1.2010    4.5083 H       1  UNL1        0.0618
     10 C          -2.5926    0.7257    5.0571 C.ar    1  UNL1       -0.0599
     11 H          -2.8784    0.0982    5.8892 H       1  UNL1        0.0618
     12 C          -1.2555    0.9018    4.7744 C.ar    1  UNL1       -0.0374
     13 H          -0.4909    0.4227    5.3688 H       1  UNL1        0.0637
@<TRIPOS>BOND
     1     5     4    1
     2     7     6    1
     3     4     6   ar
     4     4     3   ar
     5     6     8   ar
     6     2     3    1
     7     2     1    1
     8     3    12   ar
     9     8     9    1
    10     8    10   ar
    11    12    10   ar
    12    12    13    1
    13    10    11    1
