@<TRIPOS>MOLECULE
1
 14 13 0 0 0
SMALL
GASTEIGER

@<TRIPOS>ATOM
      1 N           2.0992    0.2759    3.3441 N.3     1  UNL1        0.0000
      2 SI          3.3309   -0.8059    2.7886 Si      1  UNL1        0.0000
      3 C           4.8826    0.2717    2.4858 C.3     1  UNL1        0.0000
      4 H           4.7331    0.9297    1.6351 H       1  UNL1        0.0000
      5 H           5.7592   -0.3378    2.2932 H       1  UNL1        0.0000
      6 H           5.0825    0.8958    3.3525 H       1  UNL1        0.0000
      7 C           3.5983   -2.0862    4.1846 C.3     1  UNL1        0.0000
      8 H           2.6644   -2.5850    4.4273 H       1  UNL1        0.0000
      9 H           3.9544   -1.5985    5.0874 H       1  UNL1        0.0000
     10 H           4.3235   -2.8403    3.8970 H       1  UNL1        0.0000
     11 C           2.6770   -1.6089    1.1806 C.3     1  UNL1        0.0000
     12 H           2.3742   -0.8446    0.4706 H       1  UNL1        0.0000
     13 H           1.8093   -2.2285    1.3861 H       1  UNL1        0.0000
     14 H           3.4337   -2.2296    0.7123 H       1  UNL1        0.0000
@<TRIPOS>BOND
     1    12    11    1
     2    14    11    1
     3    11    13    1
     4    11     2    1
     5     4     3    1
     6     5     3    1
     7     3     2    1
     8     3     6    1
     9     2     1    1
    10     2     7    1
    11    10     7    1
    12     7     8    1
    13     7     9    1
