@<TRIPOS>MOLECULE
1
 10 9 0 0 0
SMALL
GASTEIGER

@<TRIPOS>ATOM
      1 N           4.0724   13.7214    1.5513 N.3     1  UNL1       -0.0393
      2 N           3.7053   14.9220    1.4452 N.3     1  UNL1       -0.2137
      3 C           2.4543   15.3778    2.0179 C.3     1  UNL1        0.0048
      4 C           4.4393   15.8546    0.6130 C.3     1  UNL1        0.0048
      5 H           1.7496   15.6529    1.2284 H       1  UNL1        0.0406
      6 H           2.6278   16.2454    2.6580 H       1  UNL1        0.0406
      7 H           2.0364   14.5619    2.6078 H       1  UNL1        0.0406
      8 H           4.6763   16.7566    1.1799 H       1  UNL1        0.0406
      9 H           3.8525   16.1260   -0.2686 H       1  UNL1        0.0406
     10 H           5.3622   15.3659    0.2983 H       1  UNL1        0.0406
@<TRIPOS>BOND
     1     9     4    1
     2    10     4    1
     3     4     8    1
     4     4     2    1
     5     5     3    1
     6     2     1    1
     7     2     3    1
     8     3     7    1
     9     3     6    1
