@<TRIPOS>MOLECULE
2
 14 13 0 0 0
SMALL
GASTEIGER

@<TRIPOS>ATOM
      1 SI          0.5958    5.0096   12.0503 Si      1  UNL1        0.0000
      2 N          -0.3587    4.6549   10.6545 N.3     1  UNL1        0.0000
      3 C           1.6996    3.4816   12.3826 C.3     1  UNL1        0.0000
      4 C          -0.5975    5.3232   13.5165 C.3     1  UNL1        0.0000
      5 C           1.6261    6.5687   11.6453 C.3     1  UNL1        0.0000
      6 H           2.5696    3.7455   12.9747 H       1  UNL1        0.0000
      7 H           2.0420    3.0524   11.4452 H       1  UNL1        0.0000
      8 H           1.1522    2.7111   12.9168 H       1  UNL1        0.0000
      9 H          -0.0581    5.3686   14.4570 H       1  UNL1        0.0000
     10 H          -1.3412    4.5347   13.5892 H       1  UNL1        0.0000
     11 H          -1.1327    6.2590   13.3919 H       1  UNL1        0.0000
     12 H           2.3827    6.3454   10.8996 H       1  UNL1        0.0000
     13 H           2.1244    6.9544   12.5287 H       1  UNL1        0.0000
     14 H           0.9909    7.3519   11.2415 H       1  UNL1        0.0000
@<TRIPOS>BOND
     1     2     1    1
     2    12     5    1
     3    14     5    1
     4     7     3    1
     5     5     1    1
     6     5    13    1
     7     1     3    1
     8     1     4    1
     9     3     8    1
    10     3     6    1
    11    11     4    1
    12     4    10    1
    13     4     9    1
