@<TRIPOS>MOLECULE
1
 18 18 0 0 0
SMALL
GASTEIGER

@<TRIPOS>ATOM
      1 N           0.7118    9.7411    5.5956 N.pl3   1  UNL1       -0.1288
      2 C           0.2180    9.7196    6.8436 C.ar    1  UNL1        0.0782
      3 C           0.3713    8.5700    7.6546 C.ar    1  UNL1       -0.0257
      4 C          -0.1424    8.5726    8.9381 C.ar    1  UNL1       -0.0570
      5 H          -0.0249    7.6934    9.5554 H       1  UNL1        0.0621
      6 C          -0.8002    9.6830    9.4422 C.ar    1  UNL1       -0.0611
      7 H          -1.1927    9.6693   10.4479 H       1  UNL1        0.0618
      8 C          -0.9518   10.8114    8.6533 C.ar    1  UNL1       -0.0570
      9 H          -1.4647   11.6771    9.0484 H       1  UNL1        0.0621
     10 C          -0.4562   10.8488    7.3629 C.ar    1  UNL1       -0.0257
     11 C           1.0925    7.3890    7.0877 C.3     1  UNL1       -0.0378
     12 H           0.5836    7.0309    6.1906 H       1  UNL1        0.0278
     13 H           1.1502    6.5816    7.8126 H       1  UNL1        0.0278
     14 H           2.1014    7.6794    6.7883 H       1  UNL1        0.0278
     15 C          -0.6215   12.0526    6.4866 C.3     1  UNL1       -0.0378
     16 H          -0.9438   12.9139    7.0662 H       1  UNL1        0.0278
     17 H          -1.3669   11.8453    5.7164 H       1  UNL1        0.0278
     18 H           0.3199   12.2783    5.9800 H       1  UNL1        0.0278
@<TRIPOS>BOND
     1     1     2    1
     2    17    15    1
     3    18    15    1
     4    12    11    1
     5    15    16    1
     6    15    10    1
     7    14    11    1
     8     2    10   ar
     9     2     3   ar
    10    11     3    1
    11    11    13    1
    12    10     8   ar
    13     3     4   ar
    14     8     9    1
    15     8     6   ar
    16     4     6   ar
    17     4     5    1
    18     6     7    1
