@<TRIPOS>MOLECULE
1
 24 25 0 0 0
SMALL
GASTEIGER

@<TRIPOS>ATOM
      1 N          -1.3484    0.6501    3.3815 N.3     1  UNL1       -0.0117
      2 N          -1.2463   -0.6847    3.4448 N.pl3   1  UNL1       -0.2010
      3 C          -0.1352   -1.3393    2.9093 C.ar    1  UNL1        0.0530
      4 C           1.1266   -0.7195    2.9461 C.ar    1  UNL1       -0.0389
      5 H           1.2424    0.2076    3.5126 H       1  UNL1        0.0637
      6 C           2.2074   -1.3084    2.3186 C.ar    1  UNL1       -0.0600
      7 H           3.1711   -0.8195    2.3541 H       1  UNL1        0.0618
      8 C           2.0699   -2.5133    1.6468 C.ar    1  UNL1       -0.0616
      9 H           2.9171   -2.9655    1.1547 H       1  UNL1        0.0618
     10 C          -3.5980   -0.8346    3.9602 C.ar    1  UNL1       -0.0389
     11 H          -3.7168    0.1313    3.4892 H       1  UNL1        0.0637
     12 C          -2.1416   -2.6515    4.5911 C.ar    1  UNL1       -0.0389
     13 H          -1.1556   -3.0892    4.6426 H       1  UNL1        0.0637
     14 C          -4.6637   -1.4932    4.5343 C.ar    1  UNL1       -0.0600
     15 H          -5.6452   -1.0417    4.5118 H       1  UNL1        0.0618
     16 C          -2.3206   -1.4118    3.9636 C.ar    1  UNL1        0.0530
     17 C          -3.2173   -3.2978    5.1631 C.ar    1  UNL1       -0.0600
     18 H          -3.0668   -4.2522    5.6472 H       1  UNL1        0.0618
     19 C          -0.2646   -2.5600    2.2263 C.ar    1  UNL1       -0.0389
     20 H          -1.2322   -3.0355    2.1641 H       1  UNL1        0.0637
     21 C           0.8259   -3.1337    1.6122 C.ar    1  UNL1       -0.0600
     22 H           0.7076   -4.0688    1.0840 H       1  UNL1        0.0618
     23 C          -4.4842   -2.7305    5.1364 C.ar    1  UNL1       -0.0616
     24 H          -5.3197   -3.2452    5.5862 H       1  UNL1        0.0618
@<TRIPOS>BOND
     1    22    21    1
     2     9     8    1
     3    21     8   ar
     4    21    19   ar
     5     8     6   ar
     6    20    19    1
     7    19     3   ar
     8     6     7    1
     9     6     4   ar
    10     3     4   ar
    11     3     2    1
    12     4     5    1
    13     1     2    1
    14     2    16    1
    15    11    10    1
    16    10    16   ar
    17    10    14   ar
    18    16    12   ar
    19    15    14    1
    20    14    23   ar
    21    12    13    1
    22    12    17   ar
    23    23    17   ar
    24    23    24    1
    25    17    18    1
