@<TRIPOS>MOLECULE
1
 6 5 0 0 0
SMALL
GASTEIGER

@<TRIPOS>ATOM
      1 N           8.4814    7.3326   10.0823 N.3     1  UNL1       -0.1324
      2 C           8.5944    6.1911   10.0525 C.3     1  UNL1        0.0975
      3 C           8.7312    4.7774   10.0162 C.3     1  UNL1       -0.0400
      4 H           7.8960    4.3140   10.5420 H       1  UNL1        0.0250
      5 H           9.6641    4.4848   10.4983 H       1  UNL1        0.0250
      6 H           8.7404    4.4346    8.9814 H       1  UNL1        0.0250
@<TRIPOS>BOND
     1     6     3    1
     2     3     2    1
     3     3     5    1
     4     3     4    1
     5     2     1    1
