@<TRIPOS>MOLECULE
1
 6 5 0 0 0
SMALL
GASTEIGER

@<TRIPOS>ATOM
      1 N          10.1832    9.1821   11.4338 N.3     1  UNL1       -0.1324
      2 C          11.1252    9.2112   12.0909 C.3     1  UNL1        0.0975
      3 C          12.2760    9.2755   12.9215 C.3     1  UNL1       -0.0400
      4 H          11.9931    9.0828   13.9568 H       1  UNL1        0.0250
      5 H          12.7143   10.2714   12.8464 H       1  UNL1        0.0250
      6 H          13.0118    8.5362   12.6054 H       1  UNL1        0.0250
@<TRIPOS>BOND
     1     1     2    1
     2     2     3    1
     3     6     3    1
     4     5     3    1
     5     3     4    1
