@<TRIPOS>MOLECULE
1
 6 5 0 0 0
SMALL
GASTEIGER

@<TRIPOS>ATOM
      1 N           6.4744    8.8596    8.7557 N.3     1  UNL1       -0.1324
      2 C           5.5753    8.7056    8.0572 C.3     1  UNL1        0.0975
      3 C           4.4687    8.5498    7.1804 C.3     1  UNL1       -0.0400
      4 H           3.7496    9.3476    7.3699 H       1  UNL1        0.0250
      5 H           3.9874    7.5862    7.3457 H       1  UNL1        0.0250
      6 H           4.8102    8.6097    6.1466 H       1  UNL1        0.0250
@<TRIPOS>BOND
     1     6     3    1
     2     3     5    1
     3     3     4    1
     4     3     2    1
     5     2     1    1
