@<TRIPOS>MOLECULE
2
 14 13 0 0 0
SMALL
GASTEIGER

@<TRIPOS>ATOM
      1 SI          2.0877    0.3479    4.5091 Si      1  UNL1        0.0000
      2 N           2.1140    2.0444    4.2793 N.3     1  UNL1        0.0000
      3 C           1.8221   -0.5537    2.8367 C.3     1  UNL1        0.0000
      4 H           1.4548   -1.5636    2.9889 H       1  UNL1        0.0000
      5 H           2.7489   -0.6183    2.2780 H       1  UNL1        0.0000
      6 H           1.0999   -0.0233    2.2258 H       1  UNL1        0.0000
      7 C           3.7436   -0.2574    5.2652 C.3     1  UNL1        0.0000
      8 H           3.7723   -0.0775    6.3338 H       1  UNL1        0.0000
      9 H           4.5831    0.2621    4.8162 H       1  UNL1        0.0000
     10 H           3.8829   -1.3216    5.1036 H       1  UNL1        0.0000
     11 C           0.6655   -0.1478    5.6974 C.3     1  UNL1        0.0000
     12 H           0.8358   -1.1306    6.1252 H       1  UNL1        0.0000
     13 H          -0.2855   -0.1725    5.1778 H       1  UNL1        0.0000
     14 H           0.5822    0.5621    6.5130 H       1  UNL1        0.0000
@<TRIPOS>BOND
     1     6     3    1
     2     5     3    1
     3     3     4    1
     4     3     1    1
     5     2     1    1
     6     1     7    1
     7     1    11    1
     8     9     7    1
     9    10     7    1
    10    13    11    1
    11     7     8    1
    12    11    12    1
    13    11    14    1
