@<TRIPOS>MOLECULE
1
 26 28 0 0 0
SMALL
GASTEIGER

@<TRIPOS>ATOM
      1 N          -0.1327   16.3896    2.4243 N.3     1  UNL1       -0.1362
      2 C          -0.6371   15.2263    1.8178 C.3     1  UNL1        0.0557
      3 C           0.2967   14.0397    2.1272 C.3     1  UNL1       -0.0288
      4 H           1.2838   14.2532    1.7112 H       1  UNL1        0.0287
      5 H           0.3926   13.9506    3.2157 H       1  UNL1        0.0287
      6 C          -2.0206   14.9169    2.4233 C.3     1  UNL1       -0.0288
      7 H          -1.9056   14.8367    3.5117 H       1  UNL1        0.0287
      8 H          -2.6824   15.7566    2.2068 H       1  UNL1        0.0287
      9 C          -0.7817   15.3525    0.2923 C.3     1  UNL1       -0.0288
     10 H           0.2003   15.5479   -0.1368 H       1  UNL1        0.0287
     11 H          -1.4291   16.1999    0.0676 H       1  UNL1        0.0287
     12 C          -0.2697   12.7536    1.5309 C.3     1  UNL1       -0.0388
     13 H           0.4117   11.9228    1.7494 H       1  UNL1        0.0302
     14 C          -1.6396   12.4659    2.1429 C.3     1  UNL1       -0.0472
     15 H          -2.0449   11.5373    1.7338 H       1  UNL1        0.0271
     16 H          -1.5440   12.3463    3.2238 H       1  UNL1        0.0271
     17 C          -2.5834   13.6267    1.8346 C.3     1  UNL1       -0.0388
     18 H          -3.5652   13.4250    2.2785 H       1  UNL1        0.0302
     19 C          -2.7279   13.7843    0.3217 C.3     1  UNL1       -0.0472
     20 H          -3.1511   12.8735   -0.1086 H       1  UNL1        0.0271
     21 H          -3.4046   14.6114    0.0986 H       1  UNL1        0.0271
     22 C          -1.3562   14.0634   -0.2897 C.3     1  UNL1       -0.0388
     23 H          -1.4578   14.1745   -1.3753 H       1  UNL1        0.0302
     24 C          -0.4094   12.9040    0.0168 C.3     1  UNL1       -0.0472
     25 H           0.5692   13.0979   -0.4281 H       1  UNL1        0.0271
     26 H          -0.7983   11.9778   -0.4136 H       1  UNL1        0.0271
@<TRIPOS>BOND
     1    23    22    1
     2    25    24    1
     3    26    24    1
     4    22    24    1
     5    22     9    1
     6    22    19    1
     7    10     9    1
     8    20    19    1
     9    24    12    1
    10    11     9    1
    11    21    19    1
    12     9     2    1
    13    19    17    1
    14    12    13    1
    15    12     3    1
    16    12    14    1
    17     4     3    1
    18    15    14    1
    19     2     3    1
    20     2     6    1
    21     2     1    1
    22    17    14    1
    23    17    18    1
    24    17     6    1
    25     3     5    1
    26    14    16    1
    27     8     6    1
    28     6     7    1
