@<TRIPOS>MOLECULE
1
 6 5 0 0 0
SMALL
GASTEIGER

@<TRIPOS>ATOM
      1 N          20.3622    3.1383   14.6683 N.3     1  UNL1       -0.1324
      2 C          20.2340    2.6818   15.7169 C.3     1  UNL1        0.0975
      3 C          20.1059    2.0811   16.9973 C.3     1  UNL1       -0.0400
      4 H          20.5958    2.6955   17.7526 H       1  UNL1        0.0250
      5 H          19.0546    1.9589   17.2568 H       1  UNL1        0.0250
      6 H          20.5881    1.1021   16.9543 H       1  UNL1        0.0250
@<TRIPOS>BOND
     1     1     2    1
     2     2     3    1
     3     6     3    1
     4     3     5    1
     5     3     4    1
