@<TRIPOS>MOLECULE
1
 66 68 0 0 0
SMALL
GASTEIGER

@<TRIPOS>ATOM
      1 N          12.2490    3.5063   10.1634 N.pl3   1  UNL1        0.0000
      2 N          13.6425    1.4100    9.8325 N.ar    1  UNL1        0.0000
      3 N          11.4749    1.2919    9.0750 N.ar    1  UNL1        0.0000
      4 B          12.4066    2.1948    9.7684 B       1  UNL1        0.0000
      5 C          13.4454    0.2184    9.1574 C.ar    1  UNL1        0.0000
      6 C          12.1778    0.1488    8.7170 C.ar    1  UNL1        0.0000
      7 C          14.8141    1.7071   10.5366 C.ar    1  UNL1        0.0000
      8 C          16.0006    2.0225    9.8605 C.ar    1  UNL1        0.0000
      9 C          17.1257    2.3633   10.5998 C.ar    1  UNL1        0.0000
     10 C          17.0823    2.4158   11.9803 C.ar    1  UNL1        0.0000
     11 C          15.9174    2.0747   12.6436 C.ar    1  UNL1        0.0000
     12 C          14.7848    1.6878   11.9423 C.ar    1  UNL1        0.0000
     13 C          16.0642    2.0016    8.3515 C.3     1  UNL1        0.0000
     14 C          16.3826    3.3954    7.8091 C.3     1  UNL1        0.0000
     15 C          17.0895    0.9747    7.8641 C.3     1  UNL1        0.0000
     16 C          13.5660    1.1727   12.6724 C.3     1  UNL1        0.0000
     17 C          12.7952    2.2992   13.3618 C.3     1  UNL1        0.0000
     18 C          13.9491    0.0828   13.6783 C.3     1  UNL1        0.0000
     19 C          10.0811    1.3682    8.9092 C.ar    1  UNL1        0.0000
     20 C           9.2491    1.3318   10.0471 C.ar    1  UNL1        0.0000
     21 C           7.8790    1.4509    9.8807 C.ar    1  UNL1        0.0000
     22 C           7.3188    1.5671    8.6213 C.ar    1  UNL1        0.0000
     23 C           8.1313    1.5410    7.5072 C.ar    1  UNL1        0.0000
     24 C           9.5121    1.4484    7.6279 C.ar    1  UNL1        0.0000
     25 C           9.8584    1.0677   11.4068 C.3     1  UNL1        0.0000
     26 C           8.9350    1.3575   12.5881 C.3     1  UNL1        0.0000
     27 C          10.2885   -0.4046   11.4798 C.3     1  UNL1        0.0000
     28 C          10.3614    1.3964    6.3772 C.3     1  UNL1        0.0000
     29 C           9.9977    2.5010    5.3815 C.3     1  UNL1        0.0000
     30 C          10.2050    0.0331    5.6944 C.3     1  UNL1        0.0000
     31 H          10.7389    1.7108   11.4991 H       1  UNL1        0.0000
     32 H          10.7203   -0.6224   12.4545 H       1  UNL1        0.0000
     33 H          11.0242   -0.6427   10.7174 H       1  UNL1        0.0000
     34 H           9.4234   -1.0511   11.3362 H       1  UNL1        0.0000
     35 H           8.0944    0.6661   12.6102 H       1  UNL1        0.0000
     36 H           9.4901    1.2288   13.5152 H       1  UNL1        0.0000
     37 H           8.5643    2.3757   12.5574 H       1  UNL1        0.0000
     38 H           7.2271    1.4332   10.7388 H       1  UNL1        0.0000
     39 H           6.2471    1.6511    8.5110 H       1  UNL1        0.0000
     40 H           7.6822    1.5868    6.5260 H       1  UNL1        0.0000
     41 H          11.4080    1.5291    6.6657 H       1  UNL1        0.0000
     42 H           9.0100    2.3390    4.9556 H       1  UNL1        0.0000
     43 H          10.7144    2.5070    4.5624 H       1  UNL1        0.0000
     44 H          10.0129    3.4765    5.8615 H       1  UNL1        0.0000
     45 H          10.4711   -0.7758    6.3696 H       1  UNL1        0.0000
     46 H           9.1744   -0.1179    5.3794 H       1  UNL1        0.0000
     47 H          10.8469   -0.0258    4.8178 H       1  UNL1        0.0000
     48 H          11.7007   -0.6599    8.1962 H       1  UNL1        0.0000
     49 H          14.2273   -0.5132    9.0685 H       1  UNL1        0.0000
     50 H          15.0813    1.7155    7.9687 H       1  UNL1        0.0000
     51 H          16.4511    3.3685    6.7234 H       1  UNL1        0.0000
     52 H          17.3282    3.7638    8.2012 H       1  UNL1        0.0000
     53 H          15.5872    4.0818    8.0900 H       1  UNL1        0.0000
     54 H          17.0722    0.9124    6.7779 H       1  UNL1        0.0000
     55 H          18.0951    1.2489    8.1747 H       1  UNL1        0.0000
     56 H          16.8650   -0.0098    8.2688 H       1  UNL1        0.0000
     57 H          18.0486    2.6016   10.0917 H       1  UNL1        0.0000
     58 H          17.9612    2.7024   12.5399 H       1  UNL1        0.0000
     59 H          15.9020    2.0879   13.7237 H       1  UNL1        0.0000
     60 H          12.9046    0.7226   11.9296 H       1  UNL1        0.0000
     61 H          13.4179    2.7878   14.1105 H       1  UNL1        0.0000
     62 H          11.9223    1.8920   13.8679 H       1  UNL1        0.0000
     63 H          12.4610    3.0318   12.6191 H       1  UNL1        0.0000
     64 H          14.5474   -0.6875   13.1967 H       1  UNL1        0.0000
     65 H          13.0515   -0.3813   14.0817 H       1  UNL1        0.0000
     66 H          14.5191    0.4904   14.5098 H       1  UNL1        0.0000
@<TRIPOS>BOND
     1    43    29    1
     2    47    30    1
     3    42    29    1
     4    46    30    1
     5    29    44    1
     6    29    28    1
     7    30    45    1
     8    30    28    1
     9    28    41    1
    10    28    24    1
    11    40    23    1
    12    51    14    1
    13    54    15    1
    14    23    24   ar
    15    23    22   ar
    16    24    19   ar
    17    14    53    1
    18    14    52    1
    19    14    13    1
    20    15    55    1
    21    15    56    1
    22    15    13    1
    23    50    13    1
    24    48     6    1
    25    13     8    1
    26    39    22    1
    27    22    21   ar
    28     6     3   ar
    29     6     5   ar
    30    19     3    1
    31    19    20   ar
    32    49     5    1
    33     3     4   ar
    34     5     2   ar
    35     4     2   ar
    36     4     1    1
    37     2     7    1
    38     8     7   ar
    39     8     9   ar
    40    21    20   ar
    41    21    38    1
    42    20    25    1
    43    57     9    1
    44     7    12   ar
    45     9    10   ar
    46    33    27    1
    47    34    27    1
    48    25    27    1
    49    25    31    1
    50    25    26    1
    51    27    32    1
    52    60    16    1
    53    12    11   ar
    54    12    16    1
    55    10    58    1
    56    10    11   ar
    57    37    26    1
    58    26    35    1
    59    26    36    1
    60    63    17    1
    61    11    59    1
    62    16    17    1
    63    16    18    1
    64    64    18    1
    65    17    62    1
    66    17    61    1
    67    18    65    1
    68    18    66    1
