@<TRIPOS>MOLECULE
1
 11 11 0 0 0
SMALL
GASTEIGER

@<TRIPOS>ATOM
      1 N           3.2704    2.5892   -1.6527 N.pl3   1  UNL1       -0.1293
      2 C           4.1337    1.8682   -3.7763 C.ar    1  UNL1       -0.0191
      3 C           4.0236    1.9368   -5.1490 C.ar    1  UNL1        0.0294
      4 N           3.1223    2.6667   -5.7918 N.ar    1  UNL1       -0.2631
      5 C           2.2777    3.3725   -5.0510 C.ar    1  UNL1        0.0294
      6 C           2.2817    3.3888   -3.6736 C.ar    1  UNL1       -0.0191
      7 C           3.2376    2.6139   -2.9742 C.ar    1  UNL1        0.0752
      8 H           4.8887    1.2616   -3.3026 H       1  UNL1        0.0652
      9 H           4.6969    1.3735   -5.7838 H       1  UNL1        0.0830
     10 H           1.5560    3.9579   -5.6079 H       1  UNL1        0.0830
     11 H           1.5753    3.9796   -3.1114 H       1  UNL1        0.0652
@<TRIPOS>BOND
     1     4     3   ar
     2     4     5   ar
     3     9     3    1
     4    10     5    1
     5     3     2   ar
     6     5     6   ar
     7     2     8    1
     8     2     7   ar
     9     6    11    1
    10     6     7   ar
    11     7     1    1
