@<TRIPOS>MOLECULE
1
 37 39 0 0 0
SMALL
GASTEIGER

@<TRIPOS>ATOM
      1 N           0.4847   11.9322    4.1182 N.pl3   1  UNL1        0.2186
      2 N           0.1851   14.1044    4.8241 N.2     1  UNL1        0.0613
      3 N          -0.4424   14.9625    5.6990 N.pl3   1  UNL1       -0.1004
      4 C          -0.0779   12.8326    4.8602 C.2     1  UNL1        0.4410
      5 C          -1.1305   12.1837    5.7551 C.ar    1  UNL1        0.1520
      6 C          -2.4880   12.5098    5.7172 C.ar    1  UNL1        0.1794
      7 C          -3.4445   11.7408    6.3686 C.ar    1  UNL1        0.1972
      8 C          -3.0587   10.6138    7.0866 C.ar    1  UNL1        0.1991
      9 C          -1.7141   10.2527    7.1172 C.ar    1  UNL1        0.1972
     10 C          -0.7842   11.0223    6.4409 C.ar    1  UNL1        0.1794
     11 C          -0.6935   14.5859    7.0163 C.ar    1  UNL1        0.0796
     12 C          -1.8887   14.9311    7.6534 C.ar    1  UNL1       -0.0366
     13 C          -2.1381   14.4959    8.9399 C.ar    1  UNL1       -0.0599
     14 C          -1.2128   13.7137    9.6130 C.ar    1  UNL1       -0.0616
     15 C          -0.0201   13.3783    8.9895 C.ar    1  UNL1       -0.0599
     16 C           0.2433   13.8091    7.7062 C.ar    1  UNL1       -0.0366
     17 C          -0.7506   16.2142    5.1941 C.ar    1  UNL1        0.0796
     18 C          -0.9045   17.3241    6.0292 C.ar    1  UNL1       -0.0366
     19 C          -1.1985   18.5602    5.4901 C.ar    1  UNL1       -0.0599
     20 C          -1.3282   18.7222    4.1198 C.ar    1  UNL1       -0.0616
     21 C          -1.1515   17.6285    3.2869 C.ar    1  UNL1       -0.0599
     22 C          -0.8680   16.3851    3.8117 C.ar    1  UNL1       -0.0366
     23 F          -2.8975   13.5753    5.0196 F       1  UNL1       -0.2014
     24 F          -4.7388   12.0754    6.3105 F       1  UNL1       -0.1993
     25 F          -3.9717    9.8620    7.7164 F       1  UNL1       -0.1993
     26 F          -1.3315    9.1441    7.7737 F       1  UNL1       -0.1993
     27 F           0.5083   10.6068    6.4225 F       1  UNL1       -0.2014
     28 H          -2.6204   15.5229    7.1240 H       1  UNL1        0.0637
     29 H          -3.0697   14.7610    9.4187 H       1  UNL1        0.0618
     30 H          -1.4171   13.3725   10.6165 H       1  UNL1        0.0618
     31 H           0.7150   12.7845    9.5136 H       1  UNL1        0.0618
     32 H           1.1708   13.5517    7.2148 H       1  UNL1        0.0637
     33 H          -0.7791   17.2174    7.0965 H       1  UNL1        0.0637
     34 H          -1.3176   19.4101    6.1472 H       1  UNL1        0.0618
     35 H          -1.5583   19.6929    3.7065 H       1  UNL1        0.0618
     36 H          -1.2431   17.7461    2.2166 H       1  UNL1        0.0618
     37 H          -0.7288   15.5278    3.1727 H       1  UNL1        0.0637
@<TRIPOS>BOND
     1    36    21    1
     2    37    22    1
     3    21    22   ar
     4    21    20   ar
     5    35    20    1
     6    22    17   ar
     7     1     4    1
     8    20    19   ar
     9     2     4    2
    10     2     3    1
    11     4     5    1
    12    23     6    1
    13    17     3    1
    14    17    18   ar
    15    19    18   ar
    16    19    34    1
    17     3    11    1
    18     6     5   ar
    19     6     7   ar
    20     5    10   ar
    21    18    33    1
    22    24     7    1
    23     7     8   ar
    24    27    10    1
    25    10     9   ar
    26    11    12   ar
    27    11    16   ar
    28     8     9   ar
    29     8    25    1
    30     9    26    1
    31    28    12    1
    32    32    16    1
    33    12    13   ar
    34    16    15   ar
    35    13    29    1
    36    13    14   ar
    37    15    31    1
    38    15    14   ar
    39    14    30    1
