@<TRIPOS>MOLECULE
1
 30 30 0 0 0
SMALL
GASTEIGER

@<TRIPOS>ATOM
      1 N           3.6170    0.8725    5.9046 N.pl3   1  UNL1       -0.1288
      2 C           3.4221    1.2623    7.1628 C.ar    1  UNL1        0.0792
      3 C           3.7090    2.6184    7.5205 C.ar    1  UNL1       -0.0200
      4 C           3.3176    3.1009    8.7510 C.ar    1  UNL1       -0.0564
      5 C           2.6930    2.2848    9.6779 C.ar    1  UNL1       -0.0611
      6 C           2.4938    0.9508    9.3808 C.ar    1  UNL1       -0.0564
      7 C           2.8517    0.4096    8.1599 C.ar    1  UNL1       -0.0200
      8 C           4.3892    3.5314    6.5358 C.3     1  UNL1       -0.0196
      9 C           3.3247    4.4196    5.8810 C.3     1  UNL1       -0.0586
     10 C           5.4858    4.3841    7.1799 C.3     1  UNL1       -0.0586
     11 C           2.6480   -1.0655    7.9466 C.3     1  UNL1       -0.0196
     12 C           1.1969   -1.4787    8.2078 C.3     1  UNL1       -0.0586
     13 C           3.5898   -1.8547    8.8655 C.3     1  UNL1       -0.0586
     14 H           3.5003    4.1353    8.9957 H       1  UNL1        0.0621
     15 H           2.3812    2.6835   10.6314 H       1  UNL1        0.0618
     16 H           2.0367    0.3120   10.1193 H       1  UNL1        0.0621
     17 H           4.8599    2.9022    5.7766 H       1  UNL1        0.0344
     18 H           2.8673    5.0665    6.6264 H       1  UNL1        0.0235
     19 H           3.7735    5.0450    5.1118 H       1  UNL1        0.0235
     20 H           2.5415    3.8068    5.4388 H       1  UNL1        0.0235
     21 H           6.1687    3.7608    7.7520 H       1  UNL1        0.0235
     22 H           6.0518    4.8919    6.4026 H       1  UNL1        0.0235
     23 H           5.0716    5.1417    7.8391 H       1  UNL1        0.0235
     24 H           2.8812   -1.2957    6.9073 H       1  UNL1        0.0344
     25 H           0.9614   -1.4557    9.2691 H       1  UNL1        0.0235
     26 H           0.5234   -0.8076    7.6840 H       1  UNL1        0.0235
     27 H           1.0358   -2.4898    7.8422 H       1  UNL1        0.0235
     28 H           3.5222   -2.9150    8.6360 H       1  UNL1        0.0235
     29 H           4.6210   -1.5351    8.7403 H       1  UNL1        0.0235
     30 H           3.3148   -1.7126    9.9079 H       1  UNL1        0.0235
@<TRIPOS>BOND
     1    19     9    1
     2    20     9    1
     3    17     8    1
     4     9     8    1
     5     9    18    1
     6     1     2    1
     7    22    10    1
     8     8    10    1
     9     8     3    1
    10    24    11    1
    11     2     3   ar
    12     2     7   ar
    13    10    21    1
    14    10    23    1
    15     3     4   ar
    16    26    12    1
    17    27    12    1
    18    11     7    1
    19    11    12    1
    20    11    13    1
    21     7     6   ar
    22    12    25    1
    23    28    13    1
    24    29    13    1
    25     4    14    1
    26     4     5   ar
    27    13    30    1
    28     6     5   ar
    29     6    16    1
    30     5    15    1
