@<TRIPOS>MOLECULE
1
 12 12 0 0 0
SMALL
GASTEIGER

@<TRIPOS>ATOM
      1 N           1.4107    1.3180    8.9650 N.pl3   1  UNL1       -0.1294
      2 C           2.4566    0.5943    9.3820 C.ar    1  UNL1        0.0724
      3 C           2.5819    0.0173   10.6605 C.ar    1  UNL1       -0.0372
      4 C           3.7121   -0.6941   11.0050 C.ar    1  UNL1       -0.0599
      5 C           4.7534   -0.8587   10.1045 C.ar    1  UNL1       -0.0616
      6 C           4.6566   -0.2961    8.8372 C.ar    1  UNL1       -0.0599
      7 C           3.5358    0.4147    8.4752 C.ar    1  UNL1       -0.0372
      8 H           1.7734    0.1460   11.3660 H       1  UNL1        0.0637
      9 H           3.7860   -1.1280   11.9925 H       1  UNL1        0.0618
     10 H           5.6329   -1.4180   10.3847 H       1  UNL1        0.0618
     11 H           5.4680   -0.4173    8.1328 H       1  UNL1        0.0618
     12 H           3.4392    0.8804    7.4831 H       1  UNL1        0.0637
@<TRIPOS>BOND
     1    12     7    1
     2    11     6    1
     3     7     6   ar
     4     7     2   ar
     5     6     5   ar
     6     1     2    1
     7     2     3   ar
     8     5    10    1
     9     5     4   ar
    10     3     4   ar
    11     3     8    1
    12     4     9    1
