@<TRIPOS>MOLECULE
1
 41 40 0 0 0
SMALL
GASTEIGER

@<TRIPOS>ATOM
      1 N          -0.6039    7.2947   16.0382 N.3     1  UNL1        0.0000
      2 SI         -1.9572    8.0704   15.4358 Si      1  UNL1        0.0000
      3 C          -2.1803    7.5641   13.5368 C.3     1  UNL1        0.0000
      4 C          -1.9208    6.0607   13.4349 C.3     1  UNL1        0.0000
      5 C          -1.0797    8.2370   12.7199 C.3     1  UNL1        0.0000
      6 C          -3.5216    7.8765   12.8771 C.3     1  UNL1        0.0000
      7 C          -3.5667    7.5617   16.4476 C.3     1  UNL1        0.0000
      8 C          -3.2117    7.5328   17.9337 C.3     1  UNL1        0.0000
      9 C          -4.7735    8.4770   16.2475 C.3     1  UNL1        0.0000
     10 C          -4.0140    6.1433   16.0939 C.3     1  UNL1        0.0000
     11 C          -1.6806   10.0300   15.5406 C.3     1  UNL1        0.0000
     12 C          -1.8742   10.5049   16.9796 C.3     1  UNL1        0.0000
     13 C          -2.5742   10.8971   14.6540 C.3     1  UNL1        0.0000
     14 C          -0.2168   10.3120   15.1815 C.3     1  UNL1        0.0000
     15 H          -1.8186    5.7546   12.3891 H       1  UNL1        0.0000
     16 H          -1.0004    5.8270   13.9812 H       1  UNL1        0.0000
     17 H          -2.7382    5.4941   13.8672 H       1  UNL1        0.0000
     18 H          -1.0236    7.8054   11.7164 H       1  UNL1        0.0000
     19 H          -1.2698    9.2994   12.6017 H       1  UNL1        0.0000
     20 H          -0.1149    8.0970   13.2225 H       1  UNL1        0.0000
     21 H          -3.5039    7.5895   11.8224 H       1  UNL1        0.0000
     22 H          -4.3316    7.3304   13.3522 H       1  UNL1        0.0000
     23 H          -3.7492    8.9369   12.9313 H       1  UNL1        0.0000
     24 H          -4.0342    7.1160   18.5184 H       1  UNL1        0.0000
     25 H          -2.3279    6.9210   18.0860 H       1  UNL1        0.0000
     26 H          -3.0041    8.5264   18.3114 H       1  UNL1        0.0000
     27 H          -5.6293    8.0997   16.8120 H       1  UNL1        0.0000
     28 H          -4.5707    9.4840   16.5979 H       1  UNL1        0.0000
     29 H          -5.0600    8.5296   15.2009 H       1  UNL1        0.0000
     30 H          -4.8167    5.8226   16.7617 H       1  UNL1        0.0000
     31 H          -4.3941    6.0859   15.0785 H       1  UNL1        0.0000
     32 H          -3.1874    5.4474   16.2050 H       1  UNL1        0.0000
     33 H          -1.5304   11.5362   17.0947 H       1  UNL1        0.0000
     34 H          -2.9213   10.4819   17.2629 H       1  UNL1        0.0000
     35 H          -1.3174    9.8762   17.6645 H       1  UNL1        0.0000
     36 H          -2.3637   11.9555   14.8267 H       1  UNL1        0.0000
     37 H          -2.4104   10.6997   13.5984 H       1  UNL1        0.0000
     38 H          -3.6239   10.7261   14.8734 H       1  UNL1        0.0000
     39 H           0.0800   11.3064   15.5230 H       1  UNL1        0.0000
     40 H           0.4309    9.5627   15.6614 H       1  UNL1        0.0000
     41 H          -0.0597   10.2773   14.1072 H       1  UNL1        0.0000
@<TRIPOS>BOND
     1    18     5    1
     2    21     6    1
     3    15     4    1
     4    19     5    1
     5     5    20    1
     6     5     3    1
     7     6    23    1
     8     6    22    1
     9     6     3    1
    10     4     3    1
    11     4    17    1
    12     4    16    1
    13     3     2    1
    14    37    13    1
    15    41    14    1
    16    13    36    1
    17    13    38    1
    18    13    11    1
    19    31    10    1
    20    14    39    1
    21    14    11    1
    22    14    40    1
    23    29     9    1
    24     2    11    1
    25     2     1    1
    26     2     7    1
    27    11    12    1
    28    10    32    1
    29    10     7    1
    30    10    30    1
    31     9     7    1
    32     9    28    1
    33     9    27    1
    34     7     8    1
    35    12    33    1
    36    12    34    1
    37    12    35    1
    38     8    25    1
    39     8    26    1
    40     8    24    1
