@<TRIPOS>MOLECULE
3
 12 12 0 0 0
SMALL
GASTEIGER

@<TRIPOS>ATOM
      1 CL          4.0842    6.2105    6.7411 Cl      1  UNL1       -0.0815
      2 CL          5.7054    1.2357    5.9398 Cl      1  UNL1       -0.0815
      3 N           5.3276    3.9505    5.3196 N.pl3   1  UNL1       -0.1263
      4 C           4.7748    3.6499    6.4793 C.ar    1  UNL1        0.1089
      5 C           4.1125    4.5826    7.3026 C.ar    1  UNL1        0.0668
      6 C           3.5322    4.2132    8.4980 C.ar    1  UNL1       -0.0414
      7 H           3.0317    4.9555    9.0994 H       1  UNL1        0.0633
      8 C           3.5994    2.8916    8.9146 C.ar    1  UNL1       -0.0589
      9 H           3.1419    2.6026    9.8469 H       1  UNL1        0.0618
     10 C           4.2577    1.9391    8.1469 C.ar    1  UNL1       -0.0414
     11 H           4.3230    0.9137    8.4731 H       1  UNL1        0.0633
     12 C           4.8398    2.3180    6.9579 C.ar    1  UNL1        0.0668
@<TRIPOS>BOND
     1     3     4    1
     2     2    12    1
     3     4    12   ar
     4     4     5   ar
     5     1     5    1
     6    12    10   ar
     7     5     6   ar
     8    10    11    1
     9    10     8   ar
    10     6     8   ar
    11     6     7    1
    12     8     9    1
