@<TRIPOS>MOLECULE
1,2,3
 58 60 0 0 0
SMALL
GASTEIGER

@<TRIPOS>ATOM
      1 O           8.8397    8.5556    3.4431 O.3     1  UNL1       -0.1940
      2 N           7.3545   10.0340    2.7489 N.pl3   1  UNL1       -0.2050
      3 C           8.4980    9.4038    2.5597 C.3     1  UNL1        0.2664
      4 N           4.6539   10.4423    4.4916 N.pl3   1  UNL1       -0.3355
      5 C           6.7793   10.9261    1.8378 C.ar    1  UNL1        0.0595
      6 C           6.1228   12.3420    3.8041 C.ar    1  UNL1        0.0081
      7 C           7.0294   13.8089    5.5055 C.ar    1  UNL1       -0.0581
      8 H           7.6283   14.6688    5.7657 H       1  UNL1        0.0620
      9 C          11.0327    9.8366   -0.8654 C.ar    1  UNL1       -0.0499
     10 C           6.8953   13.4528    4.1702 C.ar    1  UNL1       -0.0409
     11 C           3.8831    9.9343    5.6330 C.3     1  UNL1        0.0004
     12 H           4.5404    9.5896    6.4272 H       1  UNL1        0.0428
     13 H           3.2894    9.0859    5.2938 H       1  UNL1        0.0428
     14 H           3.1941   10.6978    6.0213 H       1  UNL1        0.0428
     15 C           5.4689   11.5872    4.8040 C.ar    1  UNL1        0.0373
     16 C          10.0716   10.7897    1.1438 C.ar    1  UNL1       -0.0421
     17 C           6.0686   12.0297    2.3480 C.ar    1  UNL1        0.0097
     18 C           6.4087   13.0659    6.4836 C.ar    1  UNL1       -0.0597
     19 H           6.5135   13.3333    7.5239 H       1  UNL1        0.0618
     20 C           6.7966   10.7048    0.4604 C.ar    1  UNL1       -0.0384
     21 H           7.3114    9.8442    0.0661 H       1  UNL1        0.0637
     22 C           9.5551    8.5075    0.5161 C.ar    1  UNL1       -0.0421
     23 C          10.8815   10.8907    0.0172 C.ar    1  UNL1       -0.0555
     24 H          11.4026   11.8201   -0.1650 H       1  UNL1        0.0623
     25 C           9.3950    9.5983    1.3825 C.ar    1  UNL1        0.0177
     26 C           5.6354   11.9752    6.1355 C.ar    1  UNL1       -0.0401
     27 H           5.1740   11.4290    6.9372 H       1  UNL1        0.0636
     28 C          10.3638    8.6473   -0.5976 C.ar    1  UNL1       -0.0555
     29 H          10.4810    7.8123   -1.2741 H       1  UNL1        0.0623
     30 C          11.9051    9.9522   -2.0784 C.3     1  UNL1       -0.0397
     31 H          12.7568    9.2777   -1.9948 H       1  UNL1        0.0278
     32 H          12.2779   10.9664   -2.1954 H       1  UNL1        0.0278
     33 H          11.3506    9.6770   -2.9742 H       1  UNL1        0.0278
     34 C           5.3830   12.8782    1.4732 C.ar    1  UNL1       -0.0409
     35 C           6.1386   11.5642   -0.3965 C.ar    1  UNL1       -0.0597
     36 H           6.1661   11.3831   -1.4606 H       1  UNL1        0.0618
     37 C           7.6021   14.3181    3.1661 C.3     1  UNL1       -0.0391
     38 H           7.1308   15.3005    3.1321 H       1  UNL1        0.0278
     39 H           7.5822   13.8937    2.1686 H       1  UNL1        0.0278
     40 H           8.6377   14.4599    3.4699 H       1  UNL1        0.0278
     41 C           9.9687   11.9655    2.0661 C.3     1  UNL1       -0.0393
     42 H           9.5272   12.8086    1.5366 H       1  UNL1        0.0278
     43 H          10.9615   12.2653    2.3999 H       1  UNL1        0.0278
     44 H           9.3626   11.7387    2.9379 H       1  UNL1        0.0278
     45 C           3.6858   10.6822    3.4153 C.3     1  UNL1        0.0004
     46 H           2.9644   11.4566    3.7085 H       1  UNL1        0.0428
     47 H           3.1448    9.7589    3.2138 H       1  UNL1        0.0428
     48 H           4.1755   10.9919    2.4999 H       1  UNL1        0.0428
     49 C           8.8588    7.2104    0.7943 C.3     1  UNL1       -0.0393
     50 H           9.3303    6.7239    1.6478 H       1  UNL1        0.0278
     51 H           8.9210    6.5482   -0.0670 H       1  UNL1        0.0278
     52 H           7.8104    7.3644    1.0554 H       1  UNL1        0.0278
     53 C           5.4291   12.6386    0.1057 C.ar    1  UNL1       -0.0581
     54 H           4.8970   13.2987   -0.5634 H       1  UNL1        0.0620
     55 C           4.5493   14.0223    1.9755 C.3     1  UNL1       -0.0391
     56 H           4.9294   14.9673    1.5903 H       1  UNL1        0.0278
     57 H           4.5419   14.0658    3.0606 H       1  UNL1        0.0278
     58 H           3.5243   13.9117    1.6225 H       1  UNL1        0.0278
@<TRIPOS>BOND
     1    33    30    1
     2    32    30    1
     3    30    31    1
     4    30     9    1
     5    36    35    1
     6    29    28    1
     7     9    28   ar
     8     9    23   ar
     9    28    22   ar
    10    54    53    1
    11    35    53   ar
    12    35    20   ar
    13    24    23    1
    14    51    49    1
    15    23    16   ar
    16    21    20    1
    17    53    34   ar
    18    20     5   ar
    19    22    49    1
    20    22    25   ar
    21    49    52    1
    22    49    50    1
    23    16    25   ar
    24    16    41    1
    25    25     3    1
    26    34    55    1
    27    34    17   ar
    28    42    41    1
    29    56    55    1
    30    58    55    1
    31     5    17   ar
    32     5     2    1
    33    55    57    1
    34    41    43    1
    35    41    44    1
    36    39    37    1
    37    17     6    1
    38    48    45    1
    39     3     2    1
    40     3     1    1
    41    38    37    1
    42    37    40    1
    43    37    10    1
    44    47    45    1
    45    45    46    1
    46    45     4    1
    47     6    10   ar
    48     6    15   ar
    49    10     7   ar
    50     4    15    1
    51     4    11    1
    52    15    26   ar
    53    13    11    1
    54     7     8    1
    55     7    18   ar
    56    11    14    1
    57    11    12    1
    58    26    18   ar
    59    26    27    1
    60    18    19    1
