@<TRIPOS>MOLECULE
5,7,8
 40 41 0 0 0
SMALL
GASTEIGER

@<TRIPOS>ATOM
      1 SI         -0.0609    0.6439    2.0521 Si      1  UNL1        0.0000
      2 C          -0.3107    1.8119    0.5631 C.3     1  UNL1        0.0000
      3 C           0.2432    1.6479    3.6504 C.3     1  UNL1        0.0000
      4 C          -1.5070   -0.5723    2.2650 C.3     1  UNL1        0.0000
      5 O           2.6517    0.2962    1.6167 O.2     1  UNL1        0.0000
      6 N           1.4709   -1.6089    1.4301 N.2     1  UNL1        0.0000
      7 N           2.6092   -2.1582    0.9776 N.pl3   1  UNL1        0.0000
      8 C           1.5106   -0.3486    1.6781 C.2     1  UNL1        0.0000
      9 C           2.9416   -3.3821    1.2067 C.3     1  UNL1        0.0000
     10 C           4.5106   -3.3601   -0.7166 C.ar    1  UNL1        0.0000
     11 C           5.6858   -3.7653   -1.3190 C.ar    1  UNL1        0.0000
     12 C           6.5267   -4.6591   -0.6743 C.ar    1  UNL1        0.0000
     13 C           6.1825   -5.1561    0.5724 C.ar    1  UNL1        0.0000
     14 C           5.0033   -4.7645    1.1775 C.ar    1  UNL1        0.0000
     15 C           4.1563   -3.8578    0.5401 C.ar    1  UNL1        0.0000
     16 C           2.0466   -5.6237    1.7758 C.ar    1  UNL1        0.0000
     17 C           1.3256   -6.4622    2.6038 C.ar    1  UNL1        0.0000
     18 C           0.7643   -5.9730    3.7730 C.ar    1  UNL1        0.0000
     19 C           0.9256   -4.6395    4.1112 C.ar    1  UNL1        0.0000
     20 C           1.6353   -3.7915    3.2820 C.ar    1  UNL1        0.0000
     21 C           2.2036   -4.2767    2.1054 C.ar    1  UNL1        0.0000
     22 H          -1.1131    2.5216    0.7426 H       1  UNL1        0.0000
     23 H          -0.5612    1.2488   -0.3316 H       1  UNL1        0.0000
     24 H           0.5919    2.3772    0.3470 H       1  UNL1        0.0000
     25 H           1.0092    2.4060    3.5127 H       1  UNL1        0.0000
     26 H           0.5610    1.0075    4.4691 H       1  UNL1        0.0000
     27 H          -0.6629    2.1564    3.9661 H       1  UNL1        0.0000
     28 H          -2.4455   -0.0446    2.3983 H       1  UNL1        0.0000
     29 H          -1.3630   -1.2154    3.1272 H       1  UNL1        0.0000
     30 H          -1.6048   -1.2155    1.3968 H       1  UNL1        0.0000
     31 H           3.8466   -2.6734   -1.2221 H       1  UNL1        0.0000
     32 H           5.9510   -3.3765   -2.2906 H       1  UNL1        0.0000
     33 H           7.4512   -4.9646   -1.1414 H       1  UNL1        0.0000
     34 H           6.8403   -5.8467    1.0791 H       1  UNL1        0.0000
     35 H           4.7482   -5.1330    2.1601 H       1  UNL1        0.0000
     36 H           2.4764   -6.0017    0.8597 H       1  UNL1        0.0000
     37 H           1.2013   -7.5017    2.3382 H       1  UNL1        0.0000
     38 H           0.2044   -6.6319    4.4202 H       1  UNL1        0.0000
     39 H           0.4971   -4.2588    5.0265 H       1  UNL1        0.0000
     40 H           1.7792   -2.7577    3.5545 H       1  UNL1        0.0000
@<TRIPOS>BOND
     1    32    11    1
     2    11    10   ar
     3    11    12   ar
     4    31    10    1
     5    33    12    1
     6    10    15   ar
     7    12    13   ar
     8    23     2    1
     9    24     2    1
    10    15    14   ar
    11    15     9    1
    12     2    22    1
    13     2     1    1
    14    13    34    1
    15    13    14   ar
    16    36    16    1
    17     7     9    1
    18     7     6    1
    19    14    35    1
    20     9    21    1
    21    30     4    1
    22     6     8    2
    23     5     8    1
    24     8     1    1
    25    16    21   ar
    26    16    17   ar
    27     1     4    1
    28     1     3    1
    29    21    20   ar
    30     4    28    1
    31     4    29    1
    32    37    17    1
    33    17    18   ar
    34    20    40    1
    35    20    19   ar
    36    25     3    1
    37     3    27    1
    38     3    26    1
    39    18    19   ar
    40    18    38    1
    41    19    39    1
