@<TRIPOS>MOLECULE
1,2,7
 17 16 0 0 0
SMALL
GASTEIGER

@<TRIPOS>ATOM
      1 N           3.4447   10.2711    5.2335 N.am    1  UNL1       -0.1718
      2 C           2.3186    9.5169    5.3717 C.2     1  UNL1        0.4627
      3 C           3.4383   11.4169    4.3345 C.3     1  UNL1        0.0516
      4 C           4.7942   12.1241    4.4599 C.3     1  UNL1       -0.0422
      5 C           3.2019   10.9216    2.8972 C.3     1  UNL1       -0.0422
      6 C           2.3278   12.4015    4.7349 C.3     1  UNL1       -0.0422
      7 O           2.6242    8.5069    6.1737 O.co2   1  UNL1       -0.2207
      8 O           1.2255    9.6723    4.8532 O.co2   1  UNL1       -0.2207
      9 H           4.9192   12.8521    3.6607 H       1  UNL1        0.0251
     10 H           4.8481   12.6486    5.4122 H       1  UNL1        0.0251
     11 H           5.5944   11.3893    4.4201 H       1  UNL1        0.0251
     12 H           3.3221   11.7309    2.1794 H       1  UNL1        0.0251
     13 H           3.9038   10.1176    2.6698 H       1  UNL1        0.0251
     14 H           2.1906   10.5277    2.8226 H       1  UNL1        0.0251
     15 H           2.3573   13.2772    4.0905 H       1  UNL1        0.0251
     16 H           2.4641   12.7142    5.7688 H       1  UNL1        0.0251
     17 H           1.3588   11.9197    4.6448 H       1  UNL1        0.0251
@<TRIPOS>BOND
     1    12     5    1
     2    13     5    1
     3    14     5    1
     4     5     3    1
     5     9     4    1
     6    15     6    1
     7     3     4    1
     8     3     6    1
     9     3     1    1
    10    11     4    1
    11     4    10    1
    12    17     6    1
    13     6    16    1
    14     8     2   ar
    15     1     2    1
    16     2     7   ar
