@<TRIPOS>MOLECULE
1,2,15
 23 23 0 0 0
SMALL
GASTEIGER

@<TRIPOS>ATOM
      1 O          -2.9901   -1.8276    2.8450 O.3     1  UNL1       -0.1797
      2 N          -4.7955   -1.7875    4.1150 N.pl3   1  UNL1       -0.1953
      3 N          -3.6900    0.2316    3.4774 N.3     1  UNL1       -0.2568
      4 C          -5.5335   -1.3037    5.1996 C.ar    1  UNL1        0.0525
      5 C          -6.9127   -1.5274    5.2550 C.ar    1  UNL1       -0.0390
      6 H          -7.4022   -1.9954    4.4121 H       1  UNL1        0.0637
      7 C          -7.6397   -1.1357    6.3628 C.ar    1  UNL1       -0.0600
      8 H          -8.7051   -1.3127    6.3915 H       1  UNL1        0.0618
      9 C          -7.0122   -0.5175    7.4325 C.ar    1  UNL1       -0.0616
     10 H          -7.5843   -0.2170    8.2971 H       1  UNL1        0.0618
     11 C          -5.6464   -0.2896    7.3843 C.ar    1  UNL1       -0.0600
     12 H          -5.1440    0.1885    8.2124 H       1  UNL1        0.0618
     13 C          -4.9102   -0.6752    6.2812 C.ar    1  UNL1       -0.0390
     14 H          -3.8429   -0.5147    6.2495 H       1  UNL1        0.0637
     15 C          -3.8277   -1.1133    3.5071 C.3     1  UNL1        0.3083
     16 C          -4.7561    1.1541    3.7917 C.3     1  UNL1       -0.0087
     17 H          -5.7128    0.6370    3.8097 H       1  UNL1        0.0392
     18 H          -4.7932    1.9256    3.0210 H       1  UNL1        0.0392
     19 H          -4.5910    1.6256    4.7653 H       1  UNL1        0.0392
     20 C          -2.5463    0.7852    2.7811 C.3     1  UNL1       -0.0087
     21 H          -1.6753    0.1593    2.9713 H       1  UNL1        0.0392
     22 H          -2.3624    1.7876    3.1630 H       1  UNL1        0.0392
     23 H          -2.7232    0.8289    1.7021 H       1  UNL1        0.0392
@<TRIPOS>BOND
     1    23    20    1
     2    20    21    1
     3    20    22    1
     4    20     3    1
     5     1    15    1
     6    18    16    1
     7     3    15    1
     8     3    16    1
     9    15     2    1
    10    16    17    1
    11    16    19    1
    12     2     4    1
    13     6     5    1
    14     4     5   ar
    15     4    13   ar
    16     5     7   ar
    17    14    13    1
    18    13    11   ar
    19     7     8    1
    20     7     9   ar
    21    11     9   ar
    22    11    12    1
    23     9    10    1
