@<TRIPOS>MOLECULE
1,2,15
 23 23 0 0 0
SMALL
GASTEIGER

@<TRIPOS>ATOM
      1 O          11.1014    5.3463   12.3661 O.3     1  UNL1       -0.1797
      2 N           9.2722    5.8821   13.4956 N.pl3   1  UNL1       -0.1953
      3 N          10.0446    7.2537   11.7173 N.3     1  UNL1       -0.2568
      4 C           8.6700    6.7580   14.3699 C.ar    1  UNL1        0.0525
      5 C           7.5644    6.3022   15.1029 C.ar    1  UNL1       -0.0390
      6 H           7.1781    5.3138   14.8914 H       1  UNL1        0.0637
      7 C           6.9891    7.0935   16.0751 C.ar    1  UNL1       -0.0600
      8 H           6.1381    6.7258   16.6312 H       1  UNL1        0.0618
      9 C           7.4968    8.3550   16.3475 C.ar    1  UNL1       -0.0616
     10 H           7.0445    8.9721   17.1094 H       1  UNL1        0.0618
     11 C           8.5985    8.8103   15.6407 C.ar    1  UNL1       -0.0600
     12 H           9.0094    9.7873   15.8572 H       1  UNL1        0.0618
     13 C           9.1850    8.0288   14.6652 C.ar    1  UNL1       -0.0390
     14 H          10.0723    8.3691   14.1501 H       1  UNL1        0.0637
     15 C          10.1430    6.1846   12.5431 C.3     1  UNL1        0.3083
     16 C           8.8236    8.0080   11.5667 C.3     1  UNL1       -0.0087
     17 H           8.0160    7.5246   12.1116 H       1  UNL1        0.0392
     18 H           8.5578    8.0504   10.5079 H       1  UNL1        0.0392
     19 H           8.9431    9.0283   11.9420 H       1  UNL1        0.0392
     20 C          11.0441    7.4587   10.6936 C.3     1  UNL1       -0.0087
     21 H          11.9370    6.8989   10.9634 H       1  UNL1        0.0392
     22 H          11.2774    8.5227   10.6282 H       1  UNL1        0.0392
     23 H          10.6832    7.1083    9.7223 H       1  UNL1        0.0392
@<TRIPOS>BOND
     1    23    20    1
     2    18    16    1
     3    22    20    1
     4    20    21    1
     5    20     3    1
     6    16     3    1
     7    16    19    1
     8    16    17    1
     9     3    15    1
    10     1    15    1
    11    15     2    1
    12     2     4    1
    13    14    13    1
    14     4    13   ar
    15     4     5   ar
    16    13    11   ar
    17     6     5    1
    18     5     7   ar
    19    11    12    1
    20    11     9   ar
    21     7     9   ar
    22     7     8    1
    23     9    10    1
