@<TRIPOS>MOLECULE
1,2,15
 23 23 0 0 0
SMALL
GASTEIGER

@<TRIPOS>ATOM
      1 O          11.2608    5.6696   15.1936 O.3     1  UNL1       -0.1797
      2 N           9.9911    4.0812   16.0645 N.pl3   1  UNL1       -0.1953
      3 N          10.6013    5.9975   17.3410 N.3     1  UNL1       -0.2568
      4 C           9.6850    3.2353   17.1357 C.ar    1  UNL1        0.0525
      5 C          10.6329    2.9516   18.1254 C.ar    1  UNL1       -0.0390
      6 H          11.5974    3.4362   18.0821 H       1  UNL1        0.0637
      7 C          10.3501    2.0425   19.1258 C.ar    1  UNL1       -0.0600
      8 H          11.0966    1.8303   19.8770 H       1  UNL1        0.0618
      9 C           9.1239    1.3988   19.1671 C.ar    1  UNL1       -0.0616
     10 H           8.9079    0.6874   19.9494 H       1  UNL1        0.0618
     11 C           8.1779    1.6746   18.1937 C.ar    1  UNL1       -0.0600
     12 H           7.2175    1.1801   18.2190 H       1  UNL1        0.0618
     13 C           8.4509    2.5819   17.1880 C.ar    1  UNL1       -0.0390
     14 H           7.7065    2.8043   16.4383 H       1  UNL1        0.0637
     15 C          10.6173    5.2423   16.2156 C.3     1  UNL1        0.3083
     16 C           9.6020    5.8757   18.3751 C.3     1  UNL1       -0.0087
     17 H           8.7672    5.2729   18.0266 H       1  UNL1        0.0392
     18 H           9.2299    6.8722   18.6212 H       1  UNL1        0.0392
     19 H          10.0200    5.4160   19.2758 H       1  UNL1        0.0392
     20 C          11.4235    7.1853   17.4044 C.3     1  UNL1       -0.0087
     21 H          12.1826    7.1235   16.6279 H       1  UNL1        0.0392
     22 H          11.9005    7.2351   18.3846 H       1  UNL1        0.0392
     23 H          10.8203    8.0840   17.2474 H       1  UNL1        0.0392
@<TRIPOS>BOND
     1     1    15    1
     2     2    15    1
     3     2     4    1
     4    15     3    1
     5    14    13    1
     6    21    20    1
     7     4    13   ar
     8     4     5   ar
     9    13    11   ar
    10    23    20    1
    11     3    20    1
    12     3    16    1
    13    20    22    1
    14    17    16    1
    15     6     5    1
    16     5     7   ar
    17    11    12    1
    18    11     9   ar
    19    16    18    1
    20    16    19    1
    21     7     9   ar
    22     7     8    1
    23     9    10    1
