@<TRIPOS>MOLECULE
6,9,26
 116 122 0 0 0
SMALL
GASTEIGER

@<TRIPOS>ATOM
      1 BR         -1.2475   21.4321   23.3706 Br      1  UNL1        0.0000
      2 BR         -1.8608   17.4629   27.9260 Br      1  UNL1        0.0000
      3 SI          4.8185   15.9833   16.6928 Si      1  UNL1        0.0000
      4 SI          4.3554   11.1333   14.3775 Si      1  UNL1        0.0000
      5 N          -2.2077   16.5584   19.8678 N.pl3   1  UNL1        0.0000
      6 N           0.8599   15.9909   18.0170 N.am    1  UNL1        0.0000
      7 N           0.6315   16.1291   20.3534 N.2     1  UNL1        0.5000
      8 N           0.8725   16.4245   22.5975 N.pl3   1  UNL1        0.5000
      9 O          -1.5006   14.9597   18.4297 O.3     1  UNL1        0.0000
     10 O           2.5639   17.3986   18.5870 O.2     1  UNL1        0.0000
     11 C          -1.9494   17.6881   20.6656 C.ar    1  UNL1        0.0000
     12 C          -2.9087   18.6982   20.7428 C.ar    1  UNL1        0.0000
     13 H          -3.8131   18.6225   20.1609 H       1  UNL1        0.0000
     14 C          -2.7123   19.8054   21.5411 C.ar    1  UNL1        0.0000
     15 H          -3.4583   20.5826   21.5925 H       1  UNL1        0.0000
     16 C          -1.5360   19.9140   22.2689 C.ar    1  UNL1        0.0000
     17 C          -0.5769   18.9230   22.2178 C.ar    1  UNL1        0.0000
     18 H           0.3374   19.0275   22.7803 H       1  UNL1        0.0000
     19 C          -0.7796   17.7887   21.4367 C.ar    1  UNL1        0.0000
     20 C           0.2478   16.7215   21.4207 C.2     1  UNL1        0.0000
     21 C           0.1107   16.5815   19.0813 C.3     1  UNL1        0.0000
     22 H           0.0926   17.6895   19.0189 H       1  UNL1        0.0000
     23 C          -1.2757   15.9891   19.0734 C.3     1  UNL1        0.0000
     24 C           2.1443   16.4350   17.9455 C.2     1  UNL1        0.0000
     25 C           2.9931   15.6227   17.0519 C.2     1  UNL1        0.0000
     26 C           2.4568   14.4638   16.6007 C.2     1  UNL1        0.0000
     27 C           3.1413   13.5170   15.8569 C.1     1  UNL1        0.0000
     28 C           3.6821   12.6174   15.2314 C.1     1  UNL1        0.0000
     29 C          -3.5545   16.0120   19.8366 C.3     1  UNL1        0.0000
     30 H          -4.1618   16.4992   19.0714 H       1  UNL1        0.0000
     31 H          -4.0240   16.1361   20.8105 H       1  UNL1        0.0000
     32 H          -3.4786   14.9530   19.5919 H       1  UNL1        0.0000
     33 C           0.2534   16.6380   23.8365 C.ar    1  UNL1        0.0000
     34 C           0.9829   17.1051   24.9298 C.ar    1  UNL1        0.0000
     35 H           2.0379   17.3072   24.8309 H       1  UNL1        0.0000
     36 C           0.3618   17.3460   26.1391 C.ar    1  UNL1        0.0000
     37 H           0.9294   17.7187   26.9774 H       1  UNL1        0.0000
     38 C          -0.9991   17.1204   26.2653 C.ar    1  UNL1        0.0000
     39 C          -1.7407   16.6427   25.1974 C.ar    1  UNL1        0.0000
     40 H          -2.7970   16.4549   25.3114 H       1  UNL1        0.0000
     41 C          -1.1126   16.3972   23.9931 C.ar    1  UNL1        0.0000
     42 H          -1.6828   16.0045   23.1646 H       1  UNL1        0.0000
     43 C           2.0751   15.6195   22.5277 C.3     1  UNL1        0.0000
     44 H           1.8332   14.5536   22.5395 H       1  UNL1        0.0000
     45 H           2.7237   15.8425   23.3707 H       1  UNL1        0.0000
     46 H           2.5820   15.8517   21.5927 H       1  UNL1        0.0000
     47 C           4.9147   16.0154   14.7869 C.ar    1  UNL1        0.0000
     48 C           3.7470   16.1169   14.0332 C.ar    1  UNL1        0.0000
     49 H           2.7969   16.1898   14.5443 H       1  UNL1        0.0000
     50 C           3.7755   16.1226   12.6508 C.ar    1  UNL1        0.0000
     51 H           2.8532   16.1953   12.0915 H       1  UNL1        0.0000
     52 C           4.9845   16.0368   11.9817 C.ar    1  UNL1        0.0000
     53 H           5.0121   16.0390   10.9015 H       1  UNL1        0.0000
     54 C           6.1579   15.9504   12.7100 C.ar    1  UNL1        0.0000
     55 H           7.1073   15.8895   12.1961 H       1  UNL1        0.0000
     56 C           6.1187   15.9376   14.0939 C.ar    1  UNL1        0.0000
     57 H           7.0460   15.8632   14.6407 H       1  UNL1        0.0000
     58 C           5.6260   14.4163   17.4307 C.ar    1  UNL1        0.0000
     59 C           5.1752   13.9615   18.6694 C.ar    1  UNL1        0.0000
     60 H           4.4121   14.5254   19.1905 H       1  UNL1        0.0000
     61 C           5.6767   12.8041   19.2363 C.ar    1  UNL1        0.0000
     62 H           5.3124   12.4702   20.1986 H       1  UNL1        0.0000
     63 C           6.6398   12.0658   18.5678 C.ar    1  UNL1        0.0000
     64 H           7.0241   11.1540   19.0015 H       1  UNL1        0.0000
     65 C           7.0991   12.5006   17.3371 C.ar    1  UNL1        0.0000
     66 H           7.8433   11.9282   16.8026 H       1  UNL1        0.0000
     67 C           6.5984   13.6652   16.7821 C.ar    1  UNL1        0.0000
     68 H           6.9589   13.9801   15.8169 H       1  UNL1        0.0000
     69 C           5.6874   17.5447   17.4258 C.3     1  UNL1        0.0000
     70 C           4.9591   18.8117   16.9770 C.3     1  UNL1        0.0000
     71 H           5.4772   19.6980   17.3431 H       1  UNL1        0.0000
     72 H           3.9492   18.8143   17.3761 H       1  UNL1        0.0000
     73 H           4.9093   18.8681   15.8908 H       1  UNL1        0.0000
     74 C           5.6880   17.4848   18.9535 C.3     1  UNL1        0.0000
     75 H           6.2091   16.5970   19.3069 H       1  UNL1        0.0000
     76 H           4.6666   17.4688   19.3210 H       1  UNL1        0.0000
     77 H           6.1877   18.3622   19.3645 H       1  UNL1        0.0000
     78 C           7.1376   17.6077   16.9420 C.3     1  UNL1        0.0000
     79 H           7.1803   17.7733   15.8687 H       1  UNL1        0.0000
     80 H           7.6674   16.6865   17.1771 H       1  UNL1        0.0000
     81 H           7.6578   18.4325   17.4294 H       1  UNL1        0.0000
     82 C           4.0867    9.7050   15.5986 C.ar    1  UNL1        0.0000
     83 C           4.1250   10.0000   16.9586 C.ar    1  UNL1        0.0000
     84 H           4.2906   11.0221   17.2642 H       1  UNL1        0.0000
     85 C           3.9583    9.0138   17.9125 C.ar    1  UNL1        0.0000
     86 H           3.9865    9.2698   18.9618 H       1  UNL1        0.0000
     87 C           3.7538    7.7007   17.5229 C.ar    1  UNL1        0.0000
     88 H           3.6221    6.9255   18.2643 H       1  UNL1        0.0000
     89 C           3.7218    7.3859   16.1755 C.ar    1  UNL1        0.0000
     90 H           3.5677    6.3624   15.8626 H       1  UNL1        0.0000
     91 C           3.8871    8.3805   15.2272 C.ar    1  UNL1        0.0000
     92 H           3.8631    8.1135   14.1807 H       1  UNL1        0.0000
     93 C           6.2170   11.2875   14.0644 C.ar    1  UNL1        0.0000
     94 C           7.0860   10.2332   14.3274 C.ar    1  UNL1        0.0000
     95 H           6.6920    9.3078   14.7241 H       1  UNL1        0.0000
     96 C           8.4450   10.3542   14.0981 C.ar    1  UNL1        0.0000
     97 H           9.1052    9.5243   14.3090 H       1  UNL1        0.0000
     98 C           8.9610   11.5399   13.6025 C.ar    1  UNL1        0.0000
     99 H          10.0227   11.6376   13.4254 H       1  UNL1        0.0000
    100 C           8.1097   12.6001   13.3398 C.ar    1  UNL1        0.0000
    101 H           8.5075   13.5299   12.9580 H       1  UNL1        0.0000
    102 C           6.7518   12.4719   13.5687 C.ar    1  UNL1        0.0000
    103 H           6.0946   13.3062   13.3741 H       1  UNL1        0.0000
    104 C           3.4010   10.9939   12.7052 C.3     1  UNL1        0.0000
    105 C           4.0198    9.9514   11.7743 C.3     1  UNL1        0.0000
    106 H           3.9460    8.9503   12.1920 H       1  UNL1        0.0000
    107 H           5.0715   10.1694   11.5968 H       1  UNL1        0.0000
    108 H           3.5059    9.9497   10.8123 H       1  UNL1        0.0000
    109 C           3.4536   12.3511   12.0012 C.3     1  UNL1        0.0000
    110 H           2.8486   12.3337   11.0943 H       1  UNL1        0.0000
    111 H           4.4745   12.5994   11.7213 H       1  UNL1        0.0000
    112 H           3.0817   13.1425   12.6482 H       1  UNL1        0.0000
    113 C           1.9394   10.6373   12.9772 C.3     1  UNL1        0.0000
    114 H           1.3747   10.5922   12.0456 H       1  UNL1        0.0000
    115 H           1.4837   11.3886   13.6189 H       1  UNL1        0.0000
    116 H           1.8586    9.6719   13.4727 H       1  UNL1        0.0000
@<TRIPOS>BOND
     1   108   105    1
     2    53    52    1
     3   110   109    1
     4   107   105    1
     5   111   109    1
     6   105   106    1
     7   105   104    1
     8    52    50   ar
     9    52    54   ar
    10   109   112    1
    11   109   104    1
    12   114   113    1
    13    51    50    1
    14    55    54    1
    15    50    48   ar
    16   104   113    1
    17   104     4    1
    18    54    56   ar
    19   101   100    1
    20   113   116    1
    21   113   115    1
    22   100   102   ar
    23   100    98   ar
    24   103   102    1
    25    99    98    1
    26   102    93   ar
    27    98    96   ar
    28    48    49    1
    29    48    47   ar
    30    93    94   ar
    31    93     4    1
    32    56    57    1
    33    56    47   ar
    34    96    97    1
    35    96    94   ar
    36    92    91    1
    37    94    95    1
    38     4    28    1
    39     4    82    1
    40    47     3    1
    41    91    82   ar
    42    91    89   ar
    43    28    27    3
    44    82    83   ar
    45    68    67    1
    46    27    26    1
    47    90    89    1
    48    79    78    1
    49    73    70    1
    50    89    87   ar
    51    26    25    2
    52     3    25    1
    53     3    69    1
    54     3    58    1
    55    67    65   ar
    56    67    58   ar
    57    66    65    1
    58    78    80    1
    59    78    69    1
    60    78    81    1
    61    83    84    1
    62    83    85   ar
    63    70    71    1
    64    70    72    1
    65    70    69    1
    66    25    24    1
    67    65    63   ar
    68    69    74    1
    69    58    59   ar
    70    87    85   ar
    71    87    88    1
    72    85    86    1
    73    24     6    1
    74    24    10    2
    75     6    21    1
    76     9    23    1
    77    63    64    1
    78    63    61   ar
    79    59    60    1
    80    59    61   ar
    81    74    75    1
    82    74    76    1
    83    74    77    1
    84    22    21    1
    85    30    29    1
    86    23    21    1
    87    23     5    1
    88    21     7    1
    89    61    62    1
    90    32    29    1
    91    29     5    1
    92    29    31    1
    93     5    11    1
    94    13    12    1
    95     7    20    2
    96    11    12   ar
    97    11    19   ar
    98    12    14   ar
    99    20    19    1
   100    20     8    1
   101    19    17   ar
   102    14    15    1
   103    14    16   ar
   104    46    43    1
   105    17    16   ar
   106    17    18    1
   107    16     1    1
   108    43    44    1
   109    43     8    1
   110    43    45    1
   111     8    33    1
   112    42    41    1
   113    33    41   ar
   114    33    34   ar
   115    41    39   ar
   116    35    34    1
   117    34    36   ar
   118    39    40    1
   119    39    38   ar
   120    36    38   ar
   121    36    37    1
   122    38     2    1
