@<TRIPOS>MOLECULE
1,2,3
 30 30 0 0 0
SMALL
GASTEIGER

@<TRIPOS>ATOM
      1 O          12.1714    8.7397    2.7371 O.3     1  UNL1       -0.2040
      2 N          13.9112    8.5161    4.0551 N.3     1  UNL1       -0.1950
      3 C          13.2085    8.0604    3.0598 C.3     1  UNL1        0.2216
      4 C          15.1128    7.9212    4.6428 C.3     1  UNL1        0.0314
      5 C          14.7293    6.7366    5.5432 C.3     1  UNL1       -0.0457
      6 H          14.2929    5.9209    4.9703 H       1  UNL1        0.0248
      7 H          14.0066    7.0730    6.2840 H       1  UNL1        0.0248
      8 H          15.6109    6.3579    6.0558 H       1  UNL1        0.0248
      9 C          16.1797    7.4987    3.6178 C.3     1  UNL1       -0.0457
     10 H          15.9708    6.5307    3.1736 H       1  UNL1        0.0248
     11 H          17.1453    7.4343    4.1152 H       1  UNL1        0.0248
     12 H          16.2518    8.2390    2.8241 H       1  UNL1        0.0248
     13 C          15.7227    9.0157    5.5322 C.3     1  UNL1       -0.0457
     14 H          16.1872    9.7812    4.9146 H       1  UNL1        0.0248
     15 H          16.4790    8.5971    6.1931 H       1  UNL1        0.0248
     16 H          14.9376    9.4744    6.1314 H       1  UNL1        0.0248
     17 C          13.4969    6.8203    2.2077 C.3     1  UNL1        0.0239
     18 H          13.9139    6.0217    2.8193 H       1  UNL1        0.0357
     19 H          14.2349    7.1094    1.4554 H       1  UNL1        0.0357
     20 C          12.2330    6.3600    1.5417 C.ar    1  UNL1       -0.0430
     21 C          11.7057    7.0719    0.4710 C.ar    1  UNL1       -0.0584
     22 H          12.2348    7.9350    0.0967 H       1  UNL1        0.0620
     23 C          10.5074    6.6923   -0.1039 C.ar    1  UNL1       -0.0615
     24 H          10.1050    7.2579   -0.9317 H       1  UNL1        0.0618
     25 C           9.8220    5.5892    0.3772 C.ar    1  UNL1       -0.0617
     26 H           8.8853    5.2927   -0.0715 H       1  UNL1        0.0618
     27 C          10.3448    4.8673    1.4353 C.ar    1  UNL1       -0.0615
     28 H           9.8194    4.0023    1.8142 H       1  UNL1        0.0618
     29 C          11.5414    5.2530    2.0147 C.ar    1  UNL1       -0.0584
     30 H          11.9407    4.6819    2.8427 H       1  UNL1        0.0620
@<TRIPOS>BOND
     1    24    23    1
     2    23    25   ar
     3    23    21   ar
     4    26    25    1
     5    22    21    1
     6    25    27   ar
     7    21    20   ar
     8    27    28    1
     9    27    29   ar
    10    19    17    1
    11    20    29   ar
    12    20    17    1
    13    29    30    1
    14    17    18    1
    15    17     3    1
    16     1     3    1
    17    12     9    1
    18     3     2    1
    19    10     9    1
    20     9    11    1
    21     9     4    1
    22     2     4    1
    23     4    13    1
    24     4     5    1
    25    14    13    1
    26     6     5    1
    27    13    16    1
    28    13    15    1
    29     5     8    1
    30     5     7    1
