@<TRIPOS>MOLECULE
2,13,38
 80 84 0 0 0
SMALL
GASTEIGER

@<TRIPOS>ATOM
      1 SI         -3.3699   11.0710    6.7860 Si      1  UNL1        0.0000
      2 O           3.3014   11.9792   11.4307 O.3     1  UNL1        0.0000
      3 C           4.7102   11.1484   15.2400 C.ar    1  UNL1        0.0000
      4 C           7.2933   13.3391   12.6979 C.3     1  UNL1        0.0000
      5 H           7.1346   13.9769   13.5704 H       1  UNL1        0.0000
      6 H           7.8341   12.4444   13.0155 H       1  UNL1        0.0000
      7 C           8.4059   13.2170   10.4624 C.3     1  UNL1        0.0000
      8 H           8.9477   12.3162   10.7624 H       1  UNL1        0.0000
      9 H           9.0233   13.7534    9.7371 H       1  UNL1        0.0000
     10 C           5.0504   12.1701   13.0526 C.ar    1  UNL1        0.0000
     11 C           8.1460   14.0986   11.6811 C.3     1  UNL1        0.0000
     12 H           9.1024   14.3655   12.1480 H       1  UNL1        0.0000
     13 C          -0.0783   10.2225    9.3870 C.3     1  UNL1        0.0000
     14 H          -0.6637   10.4096   10.3014 H       1  UNL1        0.0000
     15 C           0.1875    8.7815    9.2860 C.ar    1  UNL1        0.0000
     16 C           5.9416   12.9446   12.0869 C.3     1  UNL1        0.0000
     17 C           0.4578    8.0111   10.4443 C.ar    1  UNL1        0.0000
     18 C           1.7051   10.3104   13.1200 C.3     1  UNL1        0.0000
     19 H           1.3292    9.7054   13.9629 H       1  UNL1        0.0000
     20 H           0.9727   11.1022   12.9151 H       1  UNL1        0.0000
     21 C           3.7746   11.6986   12.6243 C.ar    1  UNL1        0.0000
     22 C           5.4675   11.8898   14.3407 C.ar    1  UNL1        0.0000
     23 H           6.4235   12.2478   14.6880 H       1  UNL1        0.0000
     24 C           6.0828   14.9851   10.6198 C.3     1  UNL1        0.0000
     25 H           5.5514   15.8931   10.3114 H       1  UNL1        0.0000
     26 C          -2.3036   10.2351    8.1344 C.3     1  UNL1        0.0000
     27 H          -2.7902   10.3445    9.1069 H       1  UNL1        0.0000
     28 H          -2.2330    9.1617    7.9548 H       1  UNL1        0.0000
     29 C           0.5500    8.6749   11.7920 C.3     1  UNL1        0.0000
     30 H           0.5237    7.9092   12.5862 H       1  UNL1        0.0000
     31 H          -0.3048    9.3400   11.9529 H       1  UNL1        0.0000
     32 C           5.2325   14.2295   11.6376 C.3     1  UNL1        0.0000
     33 H           4.2779   13.9580   11.1862 H       1  UNL1        0.0000
     34 H           5.0368   14.8603   12.5093 H       1  UNL1        0.0000
     35 C           6.2204   12.0745   10.8506 C.3     1  UNL1        0.0000
     36 H           6.7399   11.1632   11.1630 H       1  UNL1        0.0000
     37 H           5.2692   11.7927   10.3913 H       1  UNL1        0.0000
     38 N           1.7895    9.4660   11.9092 N.3     1  UNL1        0.0000
     39 C          -0.8864   10.8228    8.2272 C.3     1  UNL1        0.0000
     40 H          -0.3767   10.6834    7.2719 H       1  UNL1        0.0000
     41 H          -0.9788   11.8998    8.3792 H       1  UNL1        0.0000
     42 C           7.0675   12.8358    9.8346 C.3     1  UNL1        0.0000
     43 H           7.2439   12.1963    8.9599 H       1  UNL1        0.0000
     44 C           5.2162   10.8953   16.6305 C.3     1  UNL1        0.0000
     45 H           6.2207   10.4741   16.6050 H       1  UNL1        0.0000
     46 H           4.5639   10.2047   17.1599 H       1  UNL1        0.0000
     47 H           5.2610   11.8266   17.1960 H       1  UNL1        0.0000
     48 C           6.3246   14.0973    9.4003 C.3     1  UNL1        0.0000
     49 H           5.3676   13.8232    8.9503 H       1  UNL1        0.0000
     50 H           6.9108   14.6390    8.6529 H       1  UNL1        0.0000
     51 C           3.4972   10.6507   14.8064 C.ar    1  UNL1        0.0000
     52 H           2.8982   10.0464   15.4768 H       1  UNL1        0.0000
     53 C           7.4203   15.3694   11.2472 C.3     1  UNL1        0.0000
     54 H           7.2546   16.0172   12.1115 H       1  UNL1        0.0000
     55 H           8.0299   15.9212   10.5269 H       1  UNL1        0.0000
     56 C           0.1914    8.0913    8.0597 C.ar    1  UNL1        0.0000
     57 H          -0.0055    8.6298    7.1444 H       1  UNL1        0.0000
     58 C           3.0256   10.9106   13.5302 C.ar    1  UNL1        0.0000
     59 C           0.6930    6.6510   10.3469 C.ar    1  UNL1        0.0000
     60 H           0.8855    6.0831   11.2482 H       1  UNL1        0.0000
     61 C           0.4354    6.7356    7.9796 C.ar    1  UNL1        0.0000
     62 H           0.4262    6.2477    7.0143 H       1  UNL1        0.0000
     63 C          -2.4184   11.1289    5.1314 C.3     1  UNL1        0.0000
     64 H          -1.5386   11.7614    5.2019 H       1  UNL1        0.0000
     65 H          -3.0396   11.5223    4.3323 H       1  UNL1        0.0000
     66 H          -2.0883   10.1390    4.8302 H       1  UNL1        0.0000
     67 C           0.6797    5.9968    9.1253 C.ar    1  UNL1        0.0000
     68 H           0.8562    4.9328    9.0709 H       1  UNL1        0.0000
     69 C          -4.9868   10.0858    6.5468 C.3     1  UNL1        0.0000
     70 H          -4.7868    9.0711    6.2175 H       1  UNL1        0.0000
     71 H          -5.6238   10.5521    5.8019 H       1  UNL1        0.0000
     72 H          -5.5543   10.0236    7.4699 H       1  UNL1        0.0000
     73 C          -3.7955   12.8546    7.3274 C.3     1  UNL1        0.0000
     74 H          -4.3255   12.8651    8.2756 H       1  UNL1        0.0000
     75 H          -4.4281   13.3477    6.5955 H       1  UNL1        0.0000
     76 H          -2.9017   13.4598    7.4438 H       1  UNL1        0.0000
     77 C           2.9067    8.5319   12.0369 C.3     1  UNL1        0.0000
     78 H           2.9490    7.9026   11.1491 H       1  UNL1        0.0000
     79 H           2.7893    7.8901   12.9235 H       1  UNL1        0.0000
     80 H           3.8389    9.0843   12.1397 H       1  UNL1        0.0000
@<TRIPOS>BOND
     1    65    63    1
     2    66    63    1
     3    63    64    1
     4    63     1    1
     5    71    69    1
     6    70    69    1
     7    69     1    1
     8    69    72    1
     9    75    73    1
    10     1    73    1
    11     1    26    1
    12    62    61    1
    13    57    56    1
    14    40    39    1
    15    73    76    1
    16    73    74    1
    17    28    26    1
    18    61    56   ar
    19    61    67   ar
    20    56    15   ar
    21    26    39    1
    22    26    27    1
    23    39    41    1
    24    39    13    1
    25    50    48    1
    26    49    48    1
    27    43    42    1
    28    68    67    1
    29    67    59   ar
    30    15    13    1
    31    15    17   ar
    32    13    14    1
    33    48    42    1
    34    48    24    1
    35     9     7    1
    36    42     7    1
    37    42    35    1
    38    25    24    1
    39    59    17   ar
    40    59    60    1
    41    37    35    1
    42    17    29    1
    43     7     8    1
    44     7    11    1
    45    55    53    1
    46    24    53    1
    47    24    32    1
    48    35    36    1
    49    35    16    1
    50    78    77    1
    51    33    32    1
    52    53    11    1
    53    53    54    1
    54     2    21    1
    55    32    16    1
    56    32    34    1
    57    11    12    1
    58    11     4    1
    59    29    38    1
    60    29    31    1
    61    29    30    1
    62    38    77    1
    63    38    18    1
    64    77    80    1
    65    77    79    1
    66    16     4    1
    67    16    10    1
    68    21    10   ar
    69    21    58   ar
    70     4     6    1
    71     4     5    1
    72    20    18    1
    73    10    22   ar
    74    18    58    1
    75    18    19    1
    76    58    51   ar
    77    22    23    1
    78    22     3   ar
    79    51     3   ar
    80    51    52    1
    81     3    44    1
    82    45    44    1
    83    44    46    1
    84    44    47    1
