@<TRIPOS>MOLECULE
2,5,41
 77 78 0 0 0
SMALL
GASTEIGER

@<TRIPOS>ATOM
      1 SI         -7.9787   -1.8945    3.8930 Si      1  UNL1        0.0000
      2 O          -2.1624    1.6577    2.0174 O.3     1  UNL1        0.0000
      3 C          -3.6992   -0.3514    5.5804 C.ar    1  UNL1        0.0000
      4 C          -2.4133   -0.7819    6.0080 C.ar    1  UNL1        0.0000
      5 N          -0.9315    0.1199    4.2719 N.3     1  UNL1        0.0000
      6 C           1.4250    1.1549    1.8934 C.ar    1  UNL1        0.0000
      7 H           2.1382    0.4522    2.3014 H       1  UNL1        0.0000
      8 C           0.0861    0.9563    2.1671 C.ar    1  UNL1        0.0000
      9 C           1.8583    2.2179    1.1138 C.ar    1  UNL1        0.0000
     10 C          -4.6112   -0.0055    6.5977 C.ar    1  UNL1        0.0000
     11 H          -5.5970    0.3458    6.3306 H       1  UNL1        0.0000
     12 C          -0.8986    1.8451    1.6783 C.ar    1  UNL1        0.0000
     13 C           0.0950    0.7860    5.0764 C.3     1  UNL1        0.0000
     14 H           0.3797    1.7281    4.6098 H       1  UNL1        0.0000
     15 H           0.9911    0.1533    5.1714 H       1  UNL1        0.0000
     16 H          -0.2963    0.9855    6.0732 H       1  UNL1        0.0000
     17 C           0.8816    3.0441    0.5729 C.ar    1  UNL1        0.0000
     18 H           1.1925    3.8519   -0.0635 H       1  UNL1        0.0000
     19 C          -0.4742    2.8846    0.8115 C.ar    1  UNL1        0.0000
     20 C          -6.1050   -1.7363    4.2282 C.3     1  UNL1        0.0000
     21 H          -5.9045   -1.8869    5.2902 H       1  UNL1        0.0000
     22 H          -5.5617   -2.5244    3.7022 H       1  UNL1        0.0000
     23 C          -5.5206   -0.3770    3.8061 C.3     1  UNL1        0.0000
     24 H          -5.6383   -0.2858    2.7218 H       1  UNL1        0.0000
     25 H          -6.1044    0.4217    4.2721 H       1  UNL1        0.0000
     26 C           4.0442    2.5984    2.2352 C.3     1  UNL1        0.0000
     27 H           3.6196    3.4480    2.7658 H       1  UNL1        0.0000
     28 H           5.1088    2.7744    2.0933 H       1  UNL1        0.0000
     29 H           3.9256    1.7157    2.8574 H       1  UNL1        0.0000
     30 C          -3.0322   -0.5286    8.3293 C.ar    1  UNL1        0.0000
     31 H          -2.7774   -0.6049    9.3754 H       1  UNL1        0.0000
     32 C          -1.5025    3.7954    0.1487 C.3     1  UNL1        0.0000
     33 C           3.3471    2.4224    0.8783 C.3     1  UNL1        0.0000
     34 C          -0.3532   -0.2413    2.9649 C.3     1  UNL1        0.0000
     35 H          -1.1260   -0.7733    2.3946 H       1  UNL1        0.0000
     36 H           0.5052   -0.9194    3.1075 H       1  UNL1        0.0000
     37 C          -4.2848   -0.0878    7.9343 C.ar    1  UNL1        0.0000
     38 H          -5.0175    0.1877    8.6801 H       1  UNL1        0.0000
     39 C          -2.1059   -0.8616    7.3546 C.ar    1  UNL1        0.0000
     40 H          -1.1218   -1.2007    7.6520 H       1  UNL1        0.0000
     41 C          -4.0330   -0.2571    4.1547 C.3     1  UNL1        0.0000
     42 H          -3.5086   -1.0411    3.5788 H       1  UNL1        0.0000
     43 C          -2.4746    2.9204   -0.6550 C.3     1  UNL1        0.0000
     44 H          -1.9388    2.4023   -1.4481 H       1  UNL1        0.0000
     45 H          -3.2567    3.5280   -1.1083 H       1  UNL1        0.0000
     46 H          -2.9300    2.1762   -0.0085 H       1  UNL1        0.0000
     47 C          -1.3580   -1.1049    4.9848 C.3     1  UNL1        0.0000
     48 H          -1.7511   -1.8205    4.2547 H       1  UNL1        0.0000
     49 H          -0.4901   -1.5785    5.4689 H       1  UNL1        0.0000
     50 C           3.6496    3.6586    0.0273 C.3     1  UNL1        0.0000
     51 H           3.2129    3.5682   -0.9646 H       1  UNL1        0.0000
     52 H           4.7267    3.7642   -0.0892 H       1  UNL1        0.0000
     53 H           3.2723    4.5605    0.5034 H       1  UNL1        0.0000
     54 C          -2.2523    4.5863    1.2290 C.3     1  UNL1        0.0000
     55 H          -2.7194    3.9120    1.9526 H       1  UNL1        0.0000
     56 H          -3.0183    5.2121    0.7715 H       1  UNL1        0.0000
     57 H          -1.5563    5.2310    1.7607 H       1  UNL1        0.0000
     58 C          -0.8851    4.8098   -0.8209 C.3     1  UNL1        0.0000
     59 H          -0.2232    5.5004   -0.3038 H       1  UNL1        0.0000
     60 H          -1.6817    5.3929   -1.2807 H       1  UNL1        0.0000
     61 H          -0.3342    4.3123   -1.6156 H       1  UNL1        0.0000
     62 C          -8.5874   -3.6170    4.4402 C.3     1  UNL1        0.0000
     63 H          -8.0811   -4.4079    3.8960 H       1  UNL1        0.0000
     64 H          -9.6529   -3.7309    4.2668 H       1  UNL1        0.0000
     65 H          -8.4080   -3.7814    5.4980 H       1  UNL1        0.0000
     66 C           3.9191    1.1942    0.1564 C.3     1  UNL1        0.0000
     67 H           3.7845    0.2918    0.7463 H       1  UNL1        0.0000
     68 H           4.9836    1.3262   -0.0275 H       1  UNL1        0.0000
     69 H           3.4173    1.0535   -0.7987 H       1  UNL1        0.0000
     70 C          -8.3344   -1.6649    2.0278 C.3     1  UNL1        0.0000
     71 H          -8.0541   -0.6733    1.6844 H       1  UNL1        0.0000
     72 H          -9.3893   -1.7990    1.8080 H       1  UNL1        0.0000
     73 H          -7.7833   -2.3846    1.4298 H       1  UNL1        0.0000
     74 C          -8.9268   -0.5508    4.8675 C.3     1  UNL1        0.0000
     75 H          -8.6699   -0.5758    5.9224 H       1  UNL1        0.0000
     76 H         -10.0008   -0.6910    4.7900 H       1  UNL1        0.0000
     77 H          -8.7028    0.4461    4.4990 H       1  UNL1        0.0000
@<TRIPOS>BOND
     1    61    58    1
     2    44    43    1
     3    60    58    1
     4    45    43    1
     5    51    50    1
     6    58    59    1
     7    58    32    1
     8    69    66    1
     9    43    46    1
    10    43    32    1
    11    52    50    1
    12    18    17    1
    13    68    66    1
    14    50    53    1
    15    50    33    1
    16    32    19    1
    17    32    54    1
    18    66    67    1
    19    66    33    1
    20    17    19   ar
    21    17     9   ar
    22    56    54    1
    23    19    12   ar
    24    33     9    1
    25    33    26    1
    26     9     6   ar
    27    54    57    1
    28    54    55    1
    29    73    70    1
    30    12     2    1
    31    12     8   ar
    32    71    70    1
    33    72    70    1
    34     6     8   ar
    35     6     7    1
    36    70     1    1
    37    28    26    1
    38     8    34    1
    39    26    27    1
    40    26    29    1
    41    35    34    1
    42    24    23    1
    43    34    36    1
    44    34     5    1
    45    42    41    1
    46    22    20    1
    47    23    41    1
    48    23    20    1
    49    23    25    1
    50     1    20    1
    51     1    62    1
    52     1    74    1
    53    63    62    1
    54    41     3    1
    55    20    21    1
    56    48    47    1
    57    64    62    1
    58     5    47    1
    59     5    13    1
    60    62    65    1
    61    77    74    1
    62    14    13    1
    63    76    74    1
    64    74    75    1
    65    47    49    1
    66    47     4    1
    67    13    15    1
    68    13    16    1
    69     3     4   ar
    70     3    10   ar
    71     4    39   ar
    72    11    10    1
    73    10    37   ar
    74    39    40    1
    75    39    30   ar
    76    37    30   ar
    77    37    38    1
    78    30    31    1
