@<TRIPOS>MOLECULE
4,8
 8 7 0 0 0
SMALL
GASTEIGER

@<TRIPOS>ATOM
      1 C          21.9775   -1.1092    4.2200 C.3     1  UNL1        0.5278
      2 O          23.2287    0.2038    2.3304 O.3     1  UNL1       -0.0619
      3 O          23.7015    0.8738    4.6417 O.3     1  UNL1       -0.0619
      4 O          21.5258    1.3133    3.5988 O.3     1  UNL1       -0.0619
      5 F          22.8340   -2.1287    4.2862 F       1  UNL1       -0.1499
      6 F          21.3977   -0.9851    5.4102 F       1  UNL1       -0.1499
      7 F          21.0328   -1.4260    3.3328 F       1  UNL1       -0.1499
      8 S          22.7589    0.5007    3.6484 S.3     1  UNL1        0.1076
@<TRIPOS>BOND
     1     2     8    1
     2     7     1    1
     3     4     8    1
     4     8     1    1
     5     8     3    1
     6     1     5    1
     7     1     6    1
