@<TRIPOS>MOLECULE
1,4
 47 49 0 0 0
SMALL
GASTEIGER

@<TRIPOS>ATOM
      1 S           4.6039    4.1701    2.9094 S.3     1  UNL1        0.0000
      2 P           7.2967    3.9862    1.6958 P.3     1  UNL1        0.0000
      3 SI          3.6094    6.5440    4.9262 Si      1  UNL1        0.0000
      4 O           7.3243    2.7970    2.6199 O.3     1  UNL1        0.0000
      5 C           8.9327    4.1581    0.9419 C.ar    1  UNL1        0.0000
      6 C           9.9317    3.2589    1.2809 C.ar    1  UNL1        0.0000
      7 H           9.7208    2.4816    1.9996 H       1  UNL1        0.0000
      8 C          11.1816    3.3634    0.6966 C.ar    1  UNL1        0.0000
      9 H          11.9582    2.6627    0.9646 H       1  UNL1        0.0000
     10 C          11.4297    4.3634   -0.2283 C.ar    1  UNL1        0.0000
     11 H          12.4048    4.4474   -0.6849 H       1  UNL1        0.0000
     12 C          10.4265    5.2559   -0.5772 C.ar    1  UNL1        0.0000
     13 H          10.6212    6.0301   -1.3048 H       1  UNL1        0.0000
     14 C           9.1761    5.1535    0.0026 C.ar    1  UNL1        0.0000
     15 H           8.3854    5.8381   -0.2705 H       1  UNL1        0.0000
     16 C           6.1585    3.7905    0.3019 C.ar    1  UNL1        0.0000
     17 C           5.8799    2.5034   -0.1379 C.ar    1  UNL1        0.0000
     18 H           6.2910    1.6543    0.3882 H       1  UNL1        0.0000
     19 C           5.0419    2.3213   -1.2228 C.ar    1  UNL1        0.0000
     20 H           4.8087    1.3215   -1.5550 H       1  UNL1        0.0000
     21 C           4.4991    3.4183   -1.8709 C.ar    1  UNL1        0.0000
     22 H           3.8420    3.2750   -2.7159 H       1  UNL1        0.0000
     23 C           4.7863    4.7022   -1.4331 C.ar    1  UNL1        0.0000
     24 H           4.3542    5.5552   -1.9356 H       1  UNL1        0.0000
     25 C           5.6174    4.8936   -0.3462 C.ar    1  UNL1        0.0000
     26 H           5.8245    5.8900    0.0200 H       1  UNL1        0.0000
     27 C           5.6772    5.5194    3.2349 C.ar    1  UNL1        0.0000
     28 C           6.9264    5.5032    2.6067 C.ar    1  UNL1        0.0000
     29 C           7.8282    6.5383    2.7983 C.ar    1  UNL1        0.0000
     30 H           8.8042    6.5006    2.3340 H       1  UNL1        0.0000
     31 C           7.4540    7.6132    3.5844 C.ar    1  UNL1        0.0000
     32 H           8.1416    8.4329    3.7359 H       1  UNL1        0.0000
     33 C           6.2050    7.6304    4.1883 C.ar    1  UNL1        0.0000
     34 H           5.9335    8.4727    4.8067 H       1  UNL1        0.0000
     35 C           5.2941    6.5920    4.0384 C.ar    1  UNL1        0.0000
     36 C           2.1907    6.4727    3.6566 C.3     1  UNL1        0.0000
     37 H           2.1887    5.5268    3.1260 H       1  UNL1        0.0000
     38 H           2.2745    7.2665    2.9193 H       1  UNL1        0.0000
     39 H           1.2299    6.5823    4.1502 H       1  UNL1        0.0000
     40 C           3.4457    8.1836    5.8969 C.3     1  UNL1        0.0000
     41 H           3.4799    9.0487    5.2426 H       1  UNL1        0.0000
     42 H           4.2206    8.2995    6.6482 H       1  UNL1        0.0000
     43 H           2.4919    8.2082    6.4126 H       1  UNL1        0.0000
     44 C           3.5839    5.1144    6.1797 C.3     1  UNL1        0.0000
     45 H           3.8493    4.1688    5.7080 H       1  UNL1        0.0000
     46 H           2.5974    4.9921    6.6162 H       1  UNL1        0.0000
     47 H           4.2853    5.2934    6.9914 H       1  UNL1        0.0000
@<TRIPOS>BOND
     1    22    21    1
     2    24    23    1
     3    21    23   ar
     4    21    19   ar
     5    20    19    1
     6    23    25   ar
     7    13    12    1
     8    19    17   ar
     9    11    10    1
    10    12    10   ar
    11    12    14   ar
    12    25    26    1
    13    25    16   ar
    14    15    14    1
    15    10     8   ar
    16    17    16   ar
    17    17    18    1
    18    14     5   ar
    19    16     2    1
    20     8     9    1
    21     8     6   ar
    22     5     6   ar
    23     5     2    1
    24     6     7    1
    25     2    28    1
    26     2     4    1
    27    30    29    1
    28    28    29   ar
    29    28    27   ar
    30    29    31   ar
    31     1    27    1
    32    38    36    1
    33    37    36    1
    34    27    35   ar
    35    31    32    1
    36    31    33   ar
    37    36    39    1
    38    36     3    1
    39    35    33   ar
    40    35     3    1
    41    33    34    1
    42     3    40    1
    43     3    44    1
    44    41    40    1
    45    45    44    1
    46    40    43    1
    47    40    42    1
    48    44    46    1
    49    44    47    1
