@<TRIPOS>MOLECULE
1,4
 47 49 0 0 0
SMALL
GASTEIGER

@<TRIPOS>ATOM
      1 S           7.3537    0.6486    4.7374 S.3     1  UNL1        0.0000
      2 P           8.0310    3.3539    6.1089 P.3     1  UNL1        0.0000
      3 SI          9.3629   -0.9480    2.8134 Si      1  UNL1        0.0000
      4 O           6.9622    3.8981    5.1995 O.3     1  UNL1        0.0000
      5 C           8.7618    4.7597    6.9815 C.ar    1  UNL1        0.0000
      6 C           9.7540    4.5603    7.9337 C.ar    1  UNL1        0.0000
      7 H          10.1040    3.5588    8.1408 H       1  UNL1        0.0000
      8 C          10.2828    5.6451    8.6079 C.ar    1  UNL1        0.0000
      9 H          11.0571    5.4959    9.3459 H       1  UNL1        0.0000
     10 C           9.8170    6.9237    8.3392 C.ar    1  UNL1        0.0000
     11 H          10.2324    7.7682    8.8690 H       1  UNL1        0.0000
     12 C           8.8183    7.1189    7.3996 C.ar    1  UNL1        0.0000
     13 H           8.4510    8.1140    7.1963 H       1  UNL1        0.0000
     14 C           8.2873    6.0363    6.7205 C.ar    1  UNL1        0.0000
     15 H           7.5060    6.1669    5.9864 H       1  UNL1        0.0000
     16 C           7.3951    2.2631    7.4061 C.ar    1  UNL1        0.0000
     17 C           6.0887    2.4667    7.8307 C.ar    1  UNL1        0.0000
     18 H           5.4896    3.2276    7.3505 H       1  UNL1        0.0000
     19 C           5.5653    1.6726    8.8347 C.ar    1  UNL1        0.0000
     20 H           4.5442    1.8148    9.1541 H       1  UNL1        0.0000
     21 C           6.3502    0.6932    9.4208 C.ar    1  UNL1        0.0000
     22 H           5.9399    0.0689   10.2006 H       1  UNL1        0.0000
     23 C           7.6595    0.5035    9.0054 C.ar    1  UNL1        0.0000
     24 H           8.2659   -0.2651    9.4616 H       1  UNL1        0.0000
     25 C           8.1882    1.2888    7.9989 C.ar    1  UNL1        0.0000
     26 H           9.1993    1.1293    7.6498 H       1  UNL1        0.0000
     27 C           8.9586    1.3128    4.5388 C.ar    1  UNL1        0.0000
     28 C           9.3233    2.5003    5.1834 C.ar    1  UNL1        0.0000
     29 C          10.6041    3.0172    5.0482 C.ar    1  UNL1        0.0000
     30 H          10.8578    3.9541    5.5252 H       1  UNL1        0.0000
     31 C          11.5436    2.3146    4.3179 C.ar    1  UNL1        0.0000
     32 H          12.5493    2.6973    4.2221 H       1  UNL1        0.0000
     33 C          11.1863    1.1225    3.7041 C.ar    1  UNL1        0.0000
     34 H          11.9272    0.5843    3.1330 H       1  UNL1        0.0000
     35 C           9.8990    0.6079    3.7779 C.ar    1  UNL1        0.0000
     36 C          10.9148   -1.5682    1.8817 C.3     1  UNL1        0.0000
     37 H          11.7228   -1.8277    2.5583 H       1  UNL1        0.0000
     38 H          11.2915   -0.8388    1.1713 H       1  UNL1        0.0000
     39 H          10.6666   -2.4630    1.3213 H       1  UNL1        0.0000
     40 C           8.0649   -0.4761    1.5038 C.3     1  UNL1        0.0000
     41 H           8.4019    0.3638    0.8992 H       1  UNL1        0.0000
     42 H           7.1204   -0.2031    1.9652 H       1  UNL1        0.0000
     43 H           7.8703   -1.3074    0.8324 H       1  UNL1        0.0000
     44 C           8.8056   -2.3392    3.9880 C.3     1  UNL1        0.0000
     45 H           9.5459   -2.5300    4.7600 H       1  UNL1        0.0000
     46 H           8.6567   -3.2634    3.4382 H       1  UNL1        0.0000
     47 H           7.8722   -2.0862    4.4779 H       1  UNL1        0.0000
@<TRIPOS>BOND
     1    43    40    1
     2    41    40    1
     3    38    36    1
     4    39    36    1
     5    40    42    1
     6    40     3    1
     7    36    37    1
     8    36     3    1
     9     3    35    1
    10     3    44    1
    11    34    33    1
    12    46    44    1
    13    33    35   ar
    14    33    31   ar
    15    35    27   ar
    16    44    47    1
    17    44    45    1
    18    32    31    1
    19    31    29   ar
    20    27     1    1
    21    27    28   ar
    22    29    28   ar
    23    29    30    1
    24    28     2    1
    25     4     2    1
    26    15    14    1
    27     2     5    1
    28     2    16    1
    29    14     5   ar
    30    14    12   ar
    31     5     6   ar
    32    13    12    1
    33    18    17    1
    34    12    10   ar
    35    16    17   ar
    36    16    25   ar
    37    26    25    1
    38    17    19   ar
    39     6     7    1
    40     6     8   ar
    41    25    23   ar
    42    10     8   ar
    43    10    11    1
    44     8     9    1
    45    19    20    1
    46    19    21   ar
    47    23    21   ar
    48    23    24    1
    49    21    22    1
