@<TRIPOS>MOLECULE
1,2,18,19,35
 54 55 0 0 0
SMALL
GASTEIGER

@<TRIPOS>ATOM
      1 B           7.1919    8.5300   -2.3567 B       1  UNL1        0.0000
      2 C           6.5011    8.5326   -3.7380 C.3     1  UNL1        0.0000
      3 H           7.0586    8.2761   -4.6357 H       1  UNL1        0.0000
      4 C           5.1578    8.8232   -3.9539 C.2     1  UNL1        0.0000
      5 SI          4.2164    8.3799   -5.5388 Si      1  UNL1        0.0000
      6 C           3.8264    6.5165   -5.4674 C.3     1  UNL1        0.0000
      7 H           3.2367    6.2728   -4.5896 H       1  UNL1        0.0000
      8 H           4.7358    5.9257   -5.4171 H       1  UNL1        0.0000
      9 H           3.2705    6.1962   -6.3433 H       1  UNL1        0.0000
     10 C           2.5942    9.3840   -5.5684 C.3     1  UNL1        0.0000
     11 H           2.0386    9.2364   -4.6470 H       1  UNL1        0.0000
     12 H           1.9592    9.0644   -6.3886 H       1  UNL1        0.0000
     13 H           2.7599   10.4507   -5.6812 H       1  UNL1        0.0000
     14 C           5.3028    8.7407   -7.0684 C.3     1  UNL1        0.0000
     15 H           6.1715    8.0900   -7.0949 H       1  UNL1        0.0000
     16 H           5.6589    9.7655   -7.1062 H       1  UNL1        0.0000
     17 H           4.7394    8.5591   -7.9780 H       1  UNL1        0.0000
     18 C           4.4754    9.3475   -2.8773 C.1     1  UNL1        0.0000
     19 C           4.3373   10.0410   -1.8456 C.2     1  UNL1        0.0000
     20 SI          3.0389   10.3044   -0.5143 Si      1  UNL1        0.0000
     21 C           2.4611   12.1212   -0.6118 C.3     1  UNL1        0.0000
     22 H           1.8560   12.2922   -1.4968 H       1  UNL1        0.0000
     23 H           3.2965   12.8143   -0.6499 H       1  UNL1        0.0000
     24 H           1.8551   12.3828    0.2501 H       1  UNL1        0.0000
     25 C           1.6087    9.1081   -0.9055 C.3     1  UNL1        0.0000
     26 H           0.7972    9.2153   -0.1924 H       1  UNL1        0.0000
     27 H           1.9393    8.0747   -0.8749 H       1  UNL1        0.0000
     28 H           1.2035    9.2900   -1.8957 H       1  UNL1        0.0000
     29 C           3.7381    9.9130    1.2189 C.3     1  UNL1        0.0000
     30 H           2.9219    9.7762    1.9218 H       1  UNL1        0.0000
     31 H           4.3625   10.7096    1.6090 H       1  UNL1        0.0000
     32 H           4.3202    8.9959    1.2228 H       1  UNL1        0.0000
     33 C           8.7721    8.2856   -2.3940 C.ar    1  UNL1        0.0000
     34 C           9.6554    9.2676   -2.8376 C.ar    1  UNL1        0.0000
     35 F           9.1013   10.5073   -3.1361 F       1  UNL1        0.0000
     36 C          11.0275    9.1236   -2.9413 C.ar    1  UNL1        0.0000
     37 F          11.7886   10.1333   -3.3730 F       1  UNL1        0.0000
     38 C          11.5978    7.9075   -2.5769 C.ar    1  UNL1        0.0000
     39 F          12.9168    7.7218   -2.6682 F       1  UNL1        0.0000
     40 C          10.7677    6.8876   -2.1109 C.ar    1  UNL1        0.0000
     41 F          11.3020    5.7153   -1.7607 F       1  UNL1        0.0000
     42 C           9.3964    7.0838   -2.0305 C.ar    1  UNL1        0.0000
     43 F           8.6473    6.0601   -1.5955 F       1  UNL1        0.0000
     44 C           6.4942    7.8088   -1.1171 C.ar    1  UNL1        0.0000
     45 C           5.3569    6.9851   -1.1200 C.ar    1  UNL1        0.0000
     46 F           4.7007    6.7391   -2.2641 F       1  UNL1        0.0000
     47 C           4.8642    6.3568    0.0158 C.ar    1  UNL1        0.0000
     48 F           3.7512    5.6159   -0.0684 F       1  UNL1        0.0000
     49 C           5.5220    6.4758    1.2349 C.ar    1  UNL1        0.0000
     50 F           5.0543    5.8683    2.3307 F       1  UNL1        0.0000
     51 C           6.6822    7.2467    1.2867 C.ar    1  UNL1        0.0000
     52 F           7.3465    7.3915    2.4391 F       1  UNL1        0.0000
     53 C           7.1181    7.8795    0.1391 C.ar    1  UNL1        0.0000
     54 F           8.2286    8.6608    0.2237 F       1  UNL1        0.0000
@<TRIPOS>BOND
     1    17    14    1
     2    16    14    1
     3    15    14    1
     4    14     5    1
     5    12    10    1
     6     9     6    1
     7    13    10    1
     8    10     5    1
     9    10    11    1
    10     5     6    1
    11     5     4    1
    12     6     8    1
    13     6     7    1
    14     3     2    1
    15     4     2    1
    16     4    18    2
    17     2     1    1
    18    37    36    1
    19    35    34    1
    20    36    34   ar
    21    36    38   ar
    22    18    19    2
    23    34    33   ar
    24    39    38    1
    25    38    40   ar
    26    33     1    1
    27    33    42   ar
    28     1    44    1
    29    46    45    1
    30    40    42   ar
    31    40    41    1
    32    42    43    1
    33    28    25    1
    34    19    20    1
    35    22    21    1
    36    45    44   ar
    37    45    47   ar
    38    44    53   ar
    39    25    27    1
    40    25    20    1
    41    25    26    1
    42    23    21    1
    43    21    20    1
    44    21    24    1
    45    20    29    1
    46    48    47    1
    47    47    49   ar
    48    53    54    1
    49    53    51   ar
    50    29    32    1
    51    29    31    1
    52    29    30    1
    53    49    51   ar
    54    49    50    1
    55    51    52    1
