@<TRIPOS>MOLECULE
1,6,7,8
 103 109 0 0 0
SMALL
GASTEIGER

@<TRIPOS>ATOM
      1 SI         -2.3957    0.5305    3.7112 Si      1  UNL1        0.0000
      2 N          -0.7532    3.6974    1.6943 N.pl3   1  UNL1        0.0000
      3 N          -2.8308    3.1624    1.7120 N.pl3   1  UNL1        0.0000
      4 N          -0.5868    1.9691    6.8485 N.pl3   1  UNL1        0.0000
      5 N          -2.6940    1.5442    6.8774 N.pl3   1  UNL1        0.0000
      6 C          -1.7347    3.2192    2.5031 C.3     1  UNL1        0.0000
      7 C          -1.7010    1.9849    6.0870 C.3     1  UNL1        0.0000
      8 C          -0.7433    4.2320    5.1787 C.3     1  UNL1        0.0000
      9 H          -0.5849    5.0990    4.5343 H       1  UNL1        0.0000
     10 H          -1.2797    4.5801    6.0666 H       1  UNL1        0.0000
     11 C          -1.2351    3.9013    0.4204 C.2     1  UNL1        0.0000
     12 H          -0.6049    4.2385   -0.3764 H       1  UNL1        0.0000
     13 C          -2.5401    3.5674    0.4358 C.2     1  UNL1        0.0000
     14 H          -3.2767    3.5705   -0.3416 H       1  UNL1        0.0000
     15 C           0.6042    4.0091    1.9558 C.ar    1  UNL1        0.0000
     16 C           1.0413    5.3143    1.7144 C.ar    1  UNL1        0.0000
     17 C           2.4036    5.5719    1.7211 C.ar    1  UNL1        0.0000
     18 H           2.7473    6.5759    1.5137 H       1  UNL1        0.0000
     19 C           3.3316    4.5698    1.9658 C.ar    1  UNL1        0.0000
     20 C           2.8659    3.3092    2.3082 C.ar    1  UNL1        0.0000
     21 H           3.5705    2.5299    2.5594 H       1  UNL1        0.0000
     22 C           1.5117    3.0123    2.3172 C.ar    1  UNL1        0.0000
     23 C           1.0226    1.6575    2.7080 C.3     1  UNL1        0.0000
     24 H           0.3385    1.7463    3.5614 H       1  UNL1        0.0000
     25 H           1.8441    1.0105    3.0042 H       1  UNL1        0.0000
     26 H           0.4765    1.1786    1.8958 H       1  UNL1        0.0000
     27 C           4.7982    4.8497    1.8362 C.3     1  UNL1        0.0000
     28 H           5.3886    4.0881    2.3379 H       1  UNL1        0.0000
     29 H           5.0508    5.8243    2.2488 H       1  UNL1        0.0000
     30 H           5.0766    4.8545    0.7816 H       1  UNL1        0.0000
     31 C           0.0720    6.4325    1.4616 C.3     1  UNL1        0.0000
     32 H          -0.1111    6.5633    0.3950 H       1  UNL1        0.0000
     33 H           0.4782    7.3667    1.8439 H       1  UNL1        0.0000
     34 H          -0.8810    6.2410    1.9501 H       1  UNL1        0.0000
     35 C          -4.1503    2.7373    2.0314 C.ar    1  UNL1        0.0000
     36 C          -5.1444    3.7014    2.1771 C.ar    1  UNL1        0.0000
     37 C          -6.4621    3.2856    2.2884 C.ar    1  UNL1        0.0000
     38 H          -7.2417    4.0267    2.3935 H       1  UNL1        0.0000
     39 C          -6.7983    1.9399    2.2411 C.ar    1  UNL1        0.0000
     40 C          -5.7836    1.0011    2.1505 C.ar    1  UNL1        0.0000
     41 H          -6.0322   -0.0506    2.1324 H       1  UNL1        0.0000
     42 C          -4.4509    1.3734    2.0460 C.ar    1  UNL1        0.0000
     43 C          -3.3627    0.3773    2.0162 C.3     1  UNL1        0.0000
     44 H          -2.6653    0.5998    1.2101 H       1  UNL1        0.0000
     45 H          -3.7559   -0.6248    1.8625 H       1  UNL1        0.0000
     46 C          -8.2343    1.5101    2.2349 C.3     1  UNL1        0.0000
     47 H          -8.8676    2.2511    2.7160 H       1  UNL1        0.0000
     48 H          -8.3576    0.5548    2.7384 H       1  UNL1        0.0000
     49 H          -8.5771    1.3925    1.2057 H       1  UNL1        0.0000
     50 C          -4.7823    5.1559    2.2156 C.3     1  UNL1        0.0000
     51 H          -3.9808    5.3156    2.9356 H       1  UNL1        0.0000
     52 H          -5.6410    5.7555    2.5049 H       1  UNL1        0.0000
     53 H          -4.4354    5.4992    1.2405 H       1  UNL1        0.0000
     54 C           0.6374    2.5058    6.3907 C.ar    1  UNL1        0.0000
     55 C           0.5571    3.6587    5.5805 C.ar    1  UNL1        0.0000
     56 C           1.7575    4.2648    5.2133 C.ar    1  UNL1        0.0000
     57 H           1.7225    5.1721    4.6272 H       1  UNL1        0.0000
     58 C           2.9844    3.7611    5.6120 C.ar    1  UNL1        0.0000
     59 C           3.0219    2.5736    6.3268 C.ar    1  UNL1        0.0000
     60 H           3.9760    2.1464    6.6018 H       1  UNL1        0.0000
     61 C           1.8568    1.9236    6.7161 C.ar    1  UNL1        0.0000
     62 C           1.9684    0.6238    7.4607 C.3     1  UNL1        0.0000
     63 H           2.0943    0.7944    8.5311 H       1  UNL1        0.0000
     64 H           2.8433    0.0789    7.1111 H       1  UNL1        0.0000
     65 H           1.0922   -0.0023    7.3101 H       1  UNL1        0.0000
     66 C           4.2584    4.4897    5.3103 C.3     1  UNL1        0.0000
     67 H           4.6810    4.8914    6.2319 H       1  UNL1        0.0000
     68 H           4.0798    5.3130    4.6254 H       1  UNL1        0.0000
     69 H           4.9952    3.8176    4.8746 H       1  UNL1        0.0000
     70 C          -0.8847    1.5306    8.1139 C.2     1  UNL1        0.0000
     71 H          -0.1581    1.4738    8.8965 H       1  UNL1        0.0000
     72 C          -2.2098    1.2616    8.1307 C.2     1  UNL1        0.0000
     73 H          -2.8348    0.8811    8.9124 H       1  UNL1        0.0000
     74 C          -4.0691    1.4782    6.5331 C.ar    1  UNL1        0.0000
     75 C          -4.9415    2.3924    7.1232 C.ar    1  UNL1        0.0000
     76 C          -6.2956    2.2790    6.8600 C.ar    1  UNL1        0.0000
     77 H          -6.9842    2.9747    7.3180 H       1  UNL1        0.0000
     78 C          -6.7866    1.2844    6.0242 C.ar    1  UNL1        0.0000
     79 C          -5.8920    0.4230    5.4140 C.ar    1  UNL1        0.0000
     80 H          -6.2619   -0.3439    4.7495 H       1  UNL1        0.0000
     81 C          -4.5238    0.4993    5.6486 C.ar    1  UNL1        0.0000
     82 C          -3.5692   -0.4114    4.9794 C.3     1  UNL1        0.0000
     83 H          -4.1062   -1.2124    4.4746 H       1  UNL1        0.0000
     84 H          -2.9149   -0.8697    5.7202 H       1  UNL1        0.0000
     85 C          -8.2645    1.1661    5.8048 C.3     1  UNL1        0.0000
     86 H          -8.6281    2.0219    5.2384 H       1  UNL1        0.0000
     87 H          -8.7898    1.1501    6.7588 H       1  UNL1        0.0000
     88 H          -8.5075    0.2590    5.2583 H       1  UNL1        0.0000
     89 C          -4.4226    3.4877    8.0070 C.3     1  UNL1        0.0000
     90 H          -4.1143    3.1014    8.9786 H       1  UNL1        0.0000
     91 H          -5.1922    4.2377    8.1688 H       1  UNL1        0.0000
     92 H          -3.5610    3.9654    7.5435 H       1  UNL1        0.0000
     93 C          -1.0184   -0.8079    3.5690 C.ar    1  UNL1        0.0000
     94 C          -0.2895   -1.1452    4.7047 C.ar    1  UNL1        0.0000
     95 H          -0.5523   -0.6886    5.6498 H       1  UNL1        0.0000
     96 C           0.7547   -2.0486    4.6596 C.ar    1  UNL1        0.0000
     97 H           1.3006   -2.2954    5.5605 H       1  UNL1        0.0000
     98 C           1.1036   -2.6389    3.4562 C.ar    1  UNL1        0.0000
     99 H           1.9203   -3.3457    3.4123 H       1  UNL1        0.0000
    100 C           0.3969   -2.3154    2.3112 C.ar    1  UNL1        0.0000
    101 H           0.6616   -2.7724    1.3671 H       1  UNL1        0.0000
    102 C          -0.6468   -1.4086    2.3721 C.ar    1  UNL1        0.0000
    103 H          -1.1872   -1.1689    1.4679 H       1  UNL1        0.0000
@<TRIPOS>BOND
     1    12    11    1
     2    14    13    1
     3    32    31    1
     4    11    13    2
     5    11     2    1
     6    13     3    1
     7    30    27    1
     8    49    46    1
     9    44    43    1
    10    53    50    1
    11   101   100    1
    12    31    16    1
    13    31    33    1
    14    31    34    1
    15   103   102    1
    16    18    17    1
    17     2    15    1
    18     2     6    1
    19     3    35    1
    20     3     6    1
    21    16    17   ar
    22    16    15   ar
    23    17    19   ar
    24    27    19    1
    25    27    29    1
    26    27    28    1
    27    45    43    1
    28    26    23    1
    29    15    22   ar
    30    19    20   ar
    31    43    42    1
    32    43     1    1
    33    35    42   ar
    34    35    36   ar
    35    42    40   ar
    36    41    40    1
    37    40    39   ar
    38    36    50    1
    39    36    37   ar
    40    50    52    1
    41    50    51    1
    42    46    39    1
    43    46    47    1
    44    46    48    1
    45    39    37   ar
    46    37    38    1
    47    20    22   ar
    48    20    21    1
    49   100   102   ar
    50   100    98   ar
    51    22    23    1
    52   102    93   ar
    53    23    25    1
    54    23    24    1
    55    99    98    1
    56    98    96   ar
    57    93     1    1
    58    93    94   ar
    59     1    82    1
    60    83    82    1
    61     9     8    1
    62    68    66    1
    63    57    56    1
    64    96    94   ar
    65    96    97    1
    66    94    95    1
    67    80    79    1
    68    69    66    1
    69    82    81    1
    70    82    84    1
    71     8    55    1
    72     8    10    1
    73    56    55   ar
    74    56    58   ar
    75    86    85    1
    76    88    85    1
    77    66    58    1
    78    66    67    1
    79    79    81   ar
    80    79    78   ar
    81    55    54   ar
    82    58    59   ar
    83    81    74   ar
    84    85    78    1
    85    85    87    1
    86    78    76   ar
    87     7     4    1
    88     7     5    1
    89    59    60    1
    90    59    61   ar
    91    54    61   ar
    92    54     4    1
    93    74     5    1
    94    74    75   ar
    95    61    62    1
    96     4    70    1
    97    76    75   ar
    98    76    77    1
    99     5    72    1
   100    64    62    1
   101    75    89    1
   102    65    62    1
   103    62    63    1
   104    92    89    1
   105    89    91    1
   106    89    90    1
   107    70    72    2
   108    70    71    1
   109    72    73    1
