@<TRIPOS>MOLECULE
4,5,6,7,8,10,11,12,13
 27 28 0 0 0
SMALL
GASTEIGER

@<TRIPOS>ATOM
      1 SI          5.6964    0.4019    1.2712 Si      1  UNL1        0.0000
      2 C           6.9934    1.7773    1.4959 C.3     1  UNL1        0.0000
      3 C           6.3969   -1.1259    0.3800 C.3     1  UNL1        0.0000
      4 C           2.9393    0.2740    0.3009 C.3     1  UNL1        0.0000
      5 C           1.8114    1.1183    0.2464 C.2     1  UNL1        0.0000
      6 C           2.2538    2.4435    0.4714 C.2     1  UNL1        0.0000
      7 C           3.6521    2.4066    0.6615 C.3     1  UNL1        0.0000
      8 C           4.0928    1.0692    0.5258 C.3     1  UNL1        0.0000
      9 C           4.8153    0.0049    2.8955 C.3     1  UNL1        0.0000
     10 C           3.8298   -1.0110    3.0187 C.3     1  UNL1        0.0000
     11 C           3.1849   -0.8624    4.2592 C.2     1  UNL1        0.0000
     12 C           3.7270    0.2648    4.8999 C.2     1  UNL1        0.0000
     13 C           4.7099    0.8176    4.0557 C.3     1  UNL1        0.0000
     14 H           7.8486    1.4111    2.0528 H       1  UNL1        0.0000
     15 H           6.5889    2.6322    2.0299 H       1  UNL1        0.0000
     16 H           7.3541    2.1256    0.5345 H       1  UNL1        0.0000
     17 H           6.7788   -0.8574   -0.5991 H       1  UNL1        0.0000
     18 H           5.6462   -1.8966    0.2413 H       1  UNL1        0.0000
     19 H           7.2141   -1.5590    0.9467 H       1  UNL1        0.0000
     20 H           2.9438   -0.7807    0.0519 H       1  UNL1        0.0000
     21 H           0.8184    0.8318   -0.0796 H       1  UNL1        0.0000
     22 H           1.6645    3.3409    0.3488 H       1  UNL1        0.0000
     23 H           4.2976    3.2719    0.7456 H       1  UNL1        0.0000
     24 H           3.7215   -1.8592    2.3528 H       1  UNL1        0.0000
     25 H           2.4787   -1.5562    4.6996 H       1  UNL1        0.0000
     26 H           3.5214    0.5605    5.9189 H       1  UNL1        0.0000
     27 H           5.4036    1.6025    4.3288 H       1  UNL1        0.0000
@<TRIPOS>BOND
     1    17     3    1
     2    21     5    1
     3    20     4    1
     4    18     3    1
     5     5     4    1
     6     5     6    2
     7     4     8    1
     8    22     6    1
     9     3    19    1
    10     3     1    1
    11     6     7    1
    12     8     7    1
    13     8     1    1
    14    16     2    1
    15     7    23    1
    16     1     2    1
    17     1     9    1
    18     2    15    1
    19     2    14    1
    20    24    10    1
    21     9    10    1
    22     9    13    1
    23    10    11    1
    24    13    27    1
    25    13    12    1
    26    11    25    1
    27    11    12    2
    28    12    26    1
