@<TRIPOS>MOLECULE
4,5,6,7,8,10,11,12,13,14
 33 34 0 0 0
SMALL
GASTEIGER

@<TRIPOS>ATOM
      1 SI          5.9860    4.6245   -0.1470 Si      1  UNL1        0.0000
      2 C           5.6791    5.9745    1.1595 C.3     1  UNL1        0.0000
      3 C           7.3455    5.0960   -1.3922 C.3     1  UNL1        0.0000
      4 C           4.3723    4.0642   -0.9671 C.3     1  UNL1        0.0000
      5 C           4.3090    3.1064   -2.0206 C.3     1  UNL1        0.0000
      6 C           2.9980    2.5812   -2.0871 C.3     1  UNL1        0.0000
      7 C           2.2486    3.1850   -1.0505 C.2     1  UNL1        0.0000
      8 C           3.0951    4.0759   -0.3516 C.2     1  UNL1        0.0000
      9 C           2.4455    1.6769   -3.1541 C.3     1  UNL1        0.0000
     10 C           6.2508    2.9235    0.6457 C.3     1  UNL1        0.0000
     11 C           5.6802    2.4759    1.8688 C.2     1  UNL1        0.0000
     12 C           5.6940    1.0602    1.8927 C.2     1  UNL1        0.0000
     13 C           6.2049    0.6179    0.6458 C.3     1  UNL1        0.0000
     14 C           6.5513    1.7629   -0.1126 C.3     1  UNL1        0.0000
     15 C           5.4400    0.1938    3.0919 C.3     1  UNL1        0.0000
     16 H           4.9093    5.6861    1.8690 H       1  UNL1        0.0000
     17 H           5.3675    6.8999    0.6883 H       1  UNL1        0.0000
     18 H           6.5854    6.1804    1.7179 H       1  UNL1        0.0000
     19 H           8.2872    5.2689   -0.8828 H       1  UNL1        0.0000
     20 H           7.0833    6.0067   -1.9197 H       1  UNL1        0.0000
     21 H           7.5084    4.3205   -2.1331 H       1  UNL1        0.0000
     22 H           5.0861    2.9475   -2.7597 H       1  UNL1        0.0000
     23 H           1.1775    3.0964   -0.9196 H       1  UNL1        0.0000
     24 H           2.7817    4.7702    0.4192 H       1  UNL1        0.0000
     25 H           1.8018    0.8992   -2.7376 H       1  UNL1        0.0000
     26 H           3.2465    1.2075   -3.7243 H       1  UNL1        0.0000
     27 H           1.8416    2.2571   -3.8543 H       1  UNL1        0.0000
     28 H           5.4359    3.1121    2.7122 H       1  UNL1        0.0000
     29 H           6.4775   -0.4064    0.4194 H       1  UNL1        0.0000
     30 H           7.1116    1.7617   -1.0403 H       1  UNL1        0.0000
     31 H           6.3442   -0.3626    3.3410 H       1  UNL1        0.0000
     32 H           4.6488   -0.5346    2.9139 H       1  UNL1        0.0000
     33 H           5.1681    0.8008    3.9535 H       1  UNL1        0.0000
@<TRIPOS>BOND
     1    27     9    1
     2    26     9    1
     3     9    25    1
     4     9     6    1
     5    22     5    1
     6    21     3    1
     7     6     5    1
     8     6     7    1
     9     5     4    1
    10    20     3    1
    11     3    19    1
    12     3     1    1
    13     7    23    1
    14     7     8    2
    15    30    14    1
    16     4     8    1
    17     4     1    1
    18     8    24    1
    19     1    10    1
    20     1     2    1
    21    14    10    1
    22    14    13    1
    23    29    13    1
    24    10    11    1
    25    13    12    1
    26    17     2    1
    27     2    18    1
    28     2    16    1
    29    11    12    2
    30    11    28    1
    31    12    15    1
    32    32    15    1
    33    15    31    1
    34    15    33    1
