@<TRIPOS>MOLECULE
1,2,4,6,8,19,20,22,24,25
 76 81 0 0 0
SMALL
GASTEIGER

@<TRIPOS>ATOM
      1 C           7.9309    4.7947    4.0214 C.3     1  UNL1        0.0000
      2 C           7.2812    3.5329    4.0080 C.2     1  UNL1        0.0000
      3 H           6.8977    3.0299    3.1266 H       1  UNL1        0.0000
      4 C           7.3645    2.9663    5.2997 C.2     1  UNL1        0.0000
      5 H           7.0629    1.9614    5.5711 H       1  UNL1        0.0000
      6 C           8.0423    3.8810    6.1322 C.2     1  UNL1        0.0000
      7 H           8.3477    3.7017    7.1557 H       1  UNL1        0.0000
      8 C           8.3597    5.0192    5.3622 C.2     1  UNL1        0.0000
      9 H           8.9735    5.8491    5.6958 H       1  UNL1        0.0000
     10 SI          7.6796    6.1727    2.7428 Si      1  UNL1        0.0000
     11 C           9.1343    7.3954    2.6611 C.3     1  UNL1        0.0000
     12 H          10.0136    6.9171    2.2434 H       1  UNL1        0.0000
     13 H           9.4014    7.7807    3.6395 H       1  UNL1        0.0000
     14 H           8.8875    8.2416    2.0293 H       1  UNL1        0.0000
     15 C           7.1998    5.4761    1.0381 C.3     1  UNL1        0.0000
     16 H           6.9162    6.2756    0.3625 H       1  UNL1        0.0000
     17 H           6.3659    4.7834    1.1007 H       1  UNL1        0.0000
     18 H           8.0351    4.9495    0.5896 H       1  UNL1        0.0000
     19 C           6.1795    6.8493    3.6823 C.3     1  UNL1        0.0000
     20 C           6.2755    7.4676    4.9591 C.2     1  UNL1        0.0000
     21 H           7.1255    8.0360    5.3203 H       1  UNL1        0.0000
     22 C           5.0172    7.3907    5.5972 C.2     1  UNL1        0.0000
     23 H           4.7478    7.8878    6.5216 H       1  UNL1        0.0000
     24 C           4.1284    6.6895    4.7384 C.3     1  UNL1        0.0000
     25 C           4.8568    6.3353    3.5752 C.3     1  UNL1        0.0000
     26 H           4.4315    5.8654    2.6938 H       1  UNL1        0.0000
     27 C           2.6750    6.4035    5.0005 C.3     1  UNL1        0.0000
     28 H           2.3838    5.4992    4.4544 H       1  UNL1        0.0000
     29 H           2.0583    7.2247    4.6193 H       1  UNL1        0.0000
     30 C           2.4077    6.2108    6.5004 C.3     1  UNL1        0.0000
     31 H           3.2671    5.6911    6.9408 H       1  UNL1        0.0000
     32 H           2.3349    7.1902    6.9780 H       1  UNL1        0.0000
     33 C           1.1326    5.4096    6.7825 C.3     1  UNL1        0.0000
     34 H           1.1435    4.5210    6.1540 H       1  UNL1        0.0000
     35 H           0.2723    5.9976    6.4603 H       1  UNL1        0.0000
     36 B           0.9717    5.0300    8.3754 B       1  UNL1        0.0000
     37 N           2.1016    4.0442    8.8148 N.pl3   1  UNL1        0.0000
     38 C           2.9182    3.3885    8.0158 C.3     1  UNL1        0.0000
     39 H           2.9174    3.4553    6.9438 H       1  UNL1        0.0000
     40 N           3.7438    2.5824    8.6840 N.pl3   1  UNL1        0.0000
     41 C           3.4503    2.7134   10.0204 C.ar    1  UNL1        0.0000
     42 C           3.9920    2.1225   11.1538 C.ar    1  UNL1        0.0000
     43 H           4.8087    1.4215   11.0875 H       1  UNL1        0.0000
     44 C           3.4424    2.4784   12.3674 C.ar    1  UNL1        0.0000
     45 H           3.8349    2.0457   13.2746 H       1  UNL1        0.0000
     46 C           2.3901    3.3934   12.4520 C.ar    1  UNL1        0.0000
     47 H           1.9947    3.6444   13.4239 H       1  UNL1        0.0000
     48 C           1.8494    3.9874   11.3313 C.ar    1  UNL1        0.0000
     49 H           1.0502    4.7036   11.4094 H       1  UNL1        0.0000
     50 C           2.3903    3.6389   10.0987 C.ar    1  UNL1        0.0000
     51 C           4.7958    1.7928    8.1100 C.3     1  UNL1        0.0000
     52 H           4.7612    1.9006    7.0254 H       1  UNL1        0.0000
     53 H           4.6709    0.7432    8.3808 H       1  UNL1        0.0000
     54 H           5.7622    2.1474    8.4748 H       1  UNL1        0.0000
     55 C           1.0714    6.4552    9.1549 C.ar    1  UNL1        0.0000
     56 C           2.2075    6.9429    9.7920 C.ar    1  UNL1        0.0000
     57 F           3.3198    6.1896    9.8744 F       1  UNL1        0.0000
     58 C           2.2854    8.2175   10.3441 C.ar    1  UNL1        0.0000
     59 F           3.4125    8.6209   10.9496 F       1  UNL1        0.0000
     60 C           1.2010    9.0783   10.2537 C.ar    1  UNL1        0.0000
     61 F           1.2620   10.3078   10.7786 F       1  UNL1        0.0000
     62 C           0.0600    8.6475    9.5875 C.ar    1  UNL1        0.0000
     63 F          -0.9864    9.4723    9.4556 F       1  UNL1        0.0000
     64 C           0.0228    7.3685    9.0485 C.ar    1  UNL1        0.0000
     65 F          -1.0910    7.0206    8.3825 F       1  UNL1        0.0000
     66 C          -0.4062    4.1899    8.6928 C.ar    1  UNL1        0.0000
     67 C          -0.7196    3.0641    7.9345 C.ar    1  UNL1        0.0000
     68 F           0.1367    2.6335    6.9897 F       1  UNL1        0.0000
     69 C          -1.8696    2.3053    8.1151 C.ar    1  UNL1        0.0000
     70 F          -2.1008    1.2351    7.3426 F       1  UNL1        0.0000
     71 C          -2.7728    2.6516    9.1113 C.ar    1  UNL1        0.0000
     72 F          -3.8867    1.9374    9.3007 F       1  UNL1        0.0000
     73 C          -2.4771    3.7355    9.9257 C.ar    1  UNL1        0.0000
     74 F          -3.3022    4.0637   10.9273 F       1  UNL1        0.0000
     75 C          -1.3116    4.4657    9.7127 C.ar    1  UNL1        0.0000
     76 F          -1.0703    5.4533   10.5933 F       1  UNL1        0.0000
@<TRIPOS>BOND
     1    16    15    1
     2    18    15    1
     3    15    17    1
     4    15    10    1
     5    14    11    1
     6    12    11    1
     7    11    10    1
     8    11    13    1
     9    26    25    1
    10    10    19    1
    11    10     1    1
    12     3     2    1
    13    25    19    1
    14    25    24    1
    15    19    20    1
    16     2     1    1
    17     2     4    2
    18     1     8    1
    19    28    27    1
    20    29    27    1
    21    24    27    1
    22    24    22    1
    23    20    21    1
    24    20    22    2
    25    27    30    1
    26     4     5    1
    27     4     6    1
    28     8     9    1
    29     8     6    2
    30    22    23    1
    31     6     7    1
    32    34    33    1
    33    35    33    1
    34    30    33    1
    35    30    31    1
    36    30    32    1
    37    33    36    1
    38    39    38    1
    39    68    67    1
    40    52    51    1
    41    70    69    1
    42    67    69   ar
    43    67    66   ar
    44    38    40    1
    45    38    37    1
    46    51    53    1
    47    51    54    1
    48    51    40    1
    49    69    71   ar
    50    36    66    1
    51    36    37    1
    52    36    55    1
    53    65    64    1
    54    40    41    1
    55    66    75   ar
    56    37    50    1
    57    64    55   ar
    58    64    62   ar
    59    71    72    1
    60    71    73   ar
    61    55    56   ar
    62    63    62    1
    63    62    60   ar
    64    75    73   ar
    65    75    76    1
    66    56    57    1
    67    56    58   ar
    68    73    74    1
    69    41    50   ar
    70    41    42   ar
    71    50    48   ar
    72    60    58   ar
    73    60    61    1
    74    58    59    1
    75    43    42    1
    76    42    44   ar
    77    48    49    1
    78    48    46   ar
    79    44    46   ar
    80    44    45    1
    81    46    47    1
