@<TRIPOS>MOLECULE
7,8,9,10,11,40,43,44,45
 68 70 0 0 0
SMALL
GASTEIGER

@<TRIPOS>ATOM
      1 SI         10.8366    4.4655    9.0834 Si      1  UNL1        0.0000
      2 SI          7.9415    2.9004    7.2421 Si      1  UNL1        0.0000
      3 SI         12.9730    0.9293    4.9620 Si      1  UNL1        0.0000
      4 O           7.6148    4.4655    7.6216 O.3     1  UNL1        0.0000
      5 C           9.4226    4.4655   10.3492 C.3     1  UNL1        0.0000
      6 C          12.4723    4.4655   10.0715 C.3     1  UNL1        0.0000
      7 C          10.8664    3.0922    7.7796 C.3     1  UNL1        0.0000
      8 C           9.7785    2.7136    6.9185 C.3     1  UNL1        0.0000
      9 C          10.3458    2.0181    5.8142 C.3     1  UNL1        0.0000
     10 C          11.7618    1.9712    5.9546 C.2     1  UNL1        0.0000
     11 C          12.0611    2.6663    7.1562 C.2     1  UNL1        0.0000
     12 C           7.3025    1.8585    8.6973 C.3     1  UNL1        0.0000
     13 C           6.9817    2.4986    5.6417 C.3     1  UNL1        0.0000
     14 C          14.7353    1.6344    5.1520 C.3     1  UNL1        0.0000
     15 C          12.4893    0.8884    3.1128 C.3     1  UNL1        0.0000
     16 C          12.9222   -0.8577    5.6407 C.3     1  UNL1        0.0000
     17 H           8.4544    4.4655    9.8695 H       1  UNL1        0.0000
     18 H           9.4879    3.5907   10.9874 H       1  UNL1        0.0000
     19 H          13.3451    4.4655    9.4287 H       1  UNL1        0.0000
     20 H          12.5333    3.5902   10.7090 H       1  UNL1        0.0000
     21 H           9.7776    1.4230    5.1102 H       1  UNL1        0.0000
     22 H          13.0507    2.7415    7.5898 H       1  UNL1        0.0000
     23 H           6.3072    2.1742    8.9920 H       1  UNL1        0.0000
     24 H           7.2541    0.8096    8.4257 H       1  UNL1        0.0000
     25 H           7.9493    1.9447    9.5628 H       1  UNL1        0.0000
     26 H           5.9238    2.7046    5.7681 H       1  UNL1        0.0000
     27 H           7.3367    3.1007    4.8097 H       1  UNL1        0.0000
     28 H           7.0814    1.4540    5.3673 H       1  UNL1        0.0000
     29 H          14.7757    2.6676    4.8202 H       1  UNL1        0.0000
     30 H          15.4472    1.0701    4.5579 H       1  UNL1        0.0000
     31 H          15.0709    1.5993    6.1841 H       1  UNL1        0.0000
     32 H          13.1448    0.2240    2.5590 H       1  UNL1        0.0000
     33 H          12.5802    1.8780    2.6769 H       1  UNL1        0.0000
     34 H          11.4715    0.5389    2.9628 H       1  UNL1        0.0000
     35 H          13.6296   -1.4911    5.1159 H       1  UNL1        0.0000
     36 H          11.9368   -1.2979    5.5271 H       1  UNL1        0.0000
     37 H          13.1722   -0.8857    6.6961 H       1  UNL1        0.0000
     38 H           9.4879    5.3403   10.9874 H       1  UNL1        0.0000
     39 H          12.5333    5.3408   10.7090 H       1  UNL1        0.0000
     40 C          10.8664    5.8388    7.7796 C.3     1  UNL1        0.0000
     41 SI          7.9415    6.0306    7.2421 Si      1  UNL1        0.0000
     42 C           9.7785    6.2174    6.9185 C.3     1  UNL1        0.0000
     43 C          10.3458    6.9129    5.8142 C.3     1  UNL1        0.0000
     44 C          12.0611    6.2647    7.1562 C.2     1  UNL1        0.0000
     45 C          11.7618    6.9598    5.9546 C.2     1  UNL1        0.0000
     46 SI         12.9730    8.0017    4.9620 Si      1  UNL1        0.0000
     47 C          14.7353    7.2966    5.1520 C.3     1  UNL1        0.0000
     48 H          14.7757    6.2634    4.8202 H       1  UNL1        0.0000
     49 H          15.4472    7.8609    4.5579 H       1  UNL1        0.0000
     50 H          15.0709    7.3317    6.1841 H       1  UNL1        0.0000
     51 C          12.4893    8.0426    3.1128 C.3     1  UNL1        0.0000
     52 H          13.1448    8.7070    2.5590 H       1  UNL1        0.0000
     53 H          12.5802    7.0530    2.6769 H       1  UNL1        0.0000
     54 H          11.4715    8.3921    2.9628 H       1  UNL1        0.0000
     55 C          12.9222    9.7887    5.6407 C.3     1  UNL1        0.0000
     56 H          13.6296   10.4221    5.1159 H       1  UNL1        0.0000
     57 H          11.9368   10.2289    5.5271 H       1  UNL1        0.0000
     58 H          13.1722    9.8167    6.6961 H       1  UNL1        0.0000
     59 H           9.7776    7.5080    5.1102 H       1  UNL1        0.0000
     60 H          13.0507    6.1895    7.5898 H       1  UNL1        0.0000
     61 C           7.3025    7.0725    8.6972 C.3     1  UNL1        0.0000
     62 H           6.3072    6.7568    8.9920 H       1  UNL1        0.0000
     63 H           7.2541    8.1214    8.4257 H       1  UNL1        0.0000
     64 H           7.9493    6.9863    9.5628 H       1  UNL1        0.0000
     65 C           6.9817    6.4324    5.6417 C.3     1  UNL1        0.0000
     66 H           5.9238    6.2264    5.7681 H       1  UNL1        0.0000
     67 H           7.3367    5.8303    4.8097 H       1  UNL1        0.0000
     68 H           7.0814    7.4770    5.3673 H       1  UNL1        0.0000
@<TRIPOS>BOND
     1    52    51    1
     2    32    15    1
     3    33    15    1
     4    53    51    1
     5    34    15    1
     6    54    51    1
     7    51    46    1
     8    15     3    1
     9    49    47    1
    10    30    14    1
    11    67    65    1
    12    27    13    1
    13    48    47    1
    14    29    14    1
    15     3    14    1
    16     3    16    1
    17     3    10    1
    18    46    47    1
    19    46    55    1
    20    46    45    1
    21    59    43    1
    22    21     9    1
    23    56    55    1
    24    35    16    1
    25    14    31    1
    26    47    50    1
    27    68    65    1
    28    28    13    1
    29    57    55    1
    30    36    16    1
    31    16    37    1
    32    55    58    1
    33    65    66    1
    34    65    41    1
    35    13    26    1
    36    13     2    1
    37     9    10    1
    38     9     8    1
    39    43    45    1
    40    43    42    1
    41    10    11    2
    42    45    44    2
    43     8     2    1
    44     8     7    1
    45    42    41    1
    46    42    40    1
    47    11    22    1
    48    11     7    1
    49    44    60    1
    50    44    40    1
    51     2     4    1
    52     2    12    1
    53    41     4    1
    54    41    61    1
    55    40     1    1
    56     7     1    1
    57    24    12    1
    58    63    61    1
    59    61    62    1
    60    61    64    1
    61    12    23    1
    62    12    25    1
    63     1     6    1
    64     1     5    1
    65    19     6    1
    66    17     5    1
    67     6    39    1
    68     6    20    1
    69     5    38    1
    70     5    18    1
