@<TRIPOS>MOLECULE
2,3,5,7,8,18,19,21,23,25
 34 35 0 0 0
SMALL
GASTEIGER

@<TRIPOS>ATOM
      1 SI          1.8117    5.0388    2.8523 Si      1  UNL1        0.0000
      2 C           0.1926    4.4755    3.6597 C.3     1  UNL1        0.0000
      3 C          -1.0539    4.4807    2.9742 C.2     1  UNL1        0.0000
      4 H          -1.3442    5.1865    2.2039 H       1  UNL1        0.0000
      5 C          -1.9164    3.5514    3.5911 C.2     1  UNL1        0.0000
      6 H          -2.9685    3.4085    3.3727 H       1  UNL1        0.0000
      7 C          -1.2058    2.9312    4.6520 C.3     1  UNL1        0.0000
      8 C           0.0962    3.4854    4.6778 C.3     1  UNL1        0.0000
      9 H           0.8511    3.2744    5.4282 H       1  UNL1        0.0000
     10 C          -1.7805    1.8972    5.5859 C.3     1  UNL1        0.0000
     11 H          -0.9861    1.5051    6.2281 H       1  UNL1        0.0000
     12 H          -2.5507    2.3548    6.2160 H       1  UNL1        0.0000
     13 C          -2.3844    0.7784    4.7802 C.2     1  UNL1        0.0000
     14 H          -1.6739    0.1052    4.3081 H       1  UNL1        0.0000
     15 C          -3.6833    0.6033    4.6202 C.2     1  UNL1        0.0000
     16 H          -4.4072    1.2538    5.0866 H       1  UNL1        0.0000
     17 H          -4.0784   -0.1955    4.0171 H       1  UNL1        0.0000
     18 C           1.7683    3.6320    1.5856 C.3     1  UNL1        0.0000
     19 C           0.7595    3.4947    0.5864 C.3     1  UNL1        0.0000
     20 H           0.2103    4.3112    0.1297 H       1  UNL1        0.0000
     21 C           0.7540    2.1593    0.1345 C.2     1  UNL1        0.0000
     22 H           0.1792    1.7706   -0.6974 H       1  UNL1        0.0000
     23 C           1.7132    1.4418    0.8800 C.2     1  UNL1        0.0000
     24 H           1.9927    0.4059    0.7254 H       1  UNL1        0.0000
     25 C           2.3286    2.3414    1.7771 C.3     1  UNL1        0.0000
     26 H           3.1680    2.1081    2.4228 H       1  UNL1        0.0000
     27 C           1.7064    6.7734    2.0741 C.3     1  UNL1        0.0000
     28 H           1.6352    7.5343    2.8435 H       1  UNL1        0.0000
     29 H           0.8435    6.8778    1.4252 H       1  UNL1        0.0000
     30 H           2.5914    6.9826    1.4832 H       1  UNL1        0.0000
     31 C           3.2824    4.8619    4.0491 C.3     1  UNL1        0.0000
     32 H           3.3361    3.8633    4.4734 H       1  UNL1        0.0000
     33 H           3.2012    5.5681    4.8681 H       1  UNL1        0.0000
     34 H           4.2195    5.0580    3.5397 H       1  UNL1        0.0000
@<TRIPOS>BOND
     1    22    21    1
     2    20    19    1
     3    21    19    1
     4    21    23    2
     5    19    18    1
     6    24    23    1
     7    23    25    1
     8    29    27    1
     9    30    27    1
    10    18    25    1
    11    18     1    1
    12    25    26    1
    13    27    28    1
    14    27     1    1
    15     4     3    1
    16     1     2    1
    17     1    31    1
    18     3     5    2
    19     3     2    1
    20     6     5    1
    21    34    31    1
    22     5     7    1
    23     2     8    1
    24    17    15    1
    25    31    32    1
    26    31    33    1
    27    14    13    1
    28    15    13    2
    29    15    16    1
    30     7     8    1
    31     7    10    1
    32     8     9    1
    33    13    10    1
    34    10    12    1
    35    10    11    1
