@<TRIPOS>MOLECULE
2,3,4,6,7,8,9,11,12,13
 61 66 0 0 0
SMALL
GASTEIGER

@<TRIPOS>ATOM
      1 SI          3.5284    2.4274   -0.4118 Si      1  UNL1        0.0000
      2 C           3.9152    0.9105    0.6604 C.2     1  UNL1        0.0000
      3 C           3.0721   -0.2277    0.8357 C.2     1  UNL1        0.0000
      4 C           3.4003   -0.8808    2.0426 C.2     1  UNL1        0.0000
      5 H           2.9797   -1.8231    2.3719 H       1  UNL1        0.0000
      6 C           4.4504   -0.1592    2.6695 C.2     1  UNL1        0.0000
      7 C           4.7623    0.9638    1.8243 C.2     1  UNL1        0.0000
      8 C           2.3757    3.1763    0.8891 C.3     1  UNL1        0.0000
      9 C           1.0249    2.7372    1.0529 C.2     1  UNL1        0.0000
     10 H           0.4184    2.2996    0.2656 H       1  UNL1        0.0000
     11 C           0.5370    3.0879    2.3226 C.2     1  UNL1        0.0000
     12 C           1.5877    3.7710    3.0094 C.3     1  UNL1        0.0000
     13 C           2.7424    3.8012    2.1326 C.3     1  UNL1        0.0000
     14 C           5.8160    1.8409    2.1947 C.2     1  UNL1        0.0000
     15 H           6.1140    2.6355    1.5259 H       1  UNL1        0.0000
     16 C           6.4878    1.6317    3.3595 C.2     1  UNL1        0.0000
     17 H           7.2923    2.2936    3.6464 H       1  UNL1        0.0000
     18 C           6.1850    0.5443    4.2315 C.2     1  UNL1        0.0000
     19 C           5.1665   -0.3814    3.8886 C.3     1  UNL1        0.0000
     20 C           3.9218    4.4221    2.5934 C.2     1  UNL1        0.0000
     21 H           4.7865    4.5059    1.9503 H       1  UNL1        0.0000
     22 C           3.9410    4.9861    3.8454 C.2     1  UNL1        0.0000
     23 H           4.8421    5.4642    4.1999 H       1  UNL1        0.0000
     24 C           2.8076    4.9779    4.6761 C.2     1  UNL1        0.0000
     25 H           2.8668    5.4511    5.6442 H       1  UNL1        0.0000
     26 C           1.6371    4.3878    4.2730 C.2     1  UNL1        0.0000
     27 H           0.7593    4.4005    4.9044 H       1  UNL1        0.0000
     28 C          -0.8645    2.9236    2.8404 C.3     1  UNL1        0.0000
     29 H          -0.8539    2.3780    3.7909 H       1  UNL1        0.0000
     30 H          -1.4466    2.3315    2.1257 H       1  UNL1        0.0000
     31 C          -1.5267    4.2658    3.0414 C.ar    1  UNL1        0.0000
     32 C          -2.2404    4.5425    4.1990 C.ar    1  UNL1        0.0000
     33 H          -2.3242    3.7878    4.9685 H       1  UNL1        0.0000
     34 C          -2.8452    5.7750    4.3761 C.ar    1  UNL1        0.0000
     35 H          -3.3969    5.9772    5.2826 H       1  UNL1        0.0000
     36 C          -2.7395    6.7473    3.3971 C.ar    1  UNL1        0.0000
     37 H          -3.2087    7.7102    3.5356 H       1  UNL1        0.0000
     38 C          -2.0278    6.4801    2.2396 C.ar    1  UNL1        0.0000
     39 H          -1.9415    7.2351    1.4719 H       1  UNL1        0.0000
     40 C          -1.4261    5.2478    2.0633 C.ar    1  UNL1        0.0000
     41 H          -0.8674    5.0438    1.1611 H       1  UNL1        0.0000
     42 C           2.5723    2.0660   -2.0244 C.3     1  UNL1        0.0000
     43 H           2.4034    2.9940   -2.5606 H       1  UNL1        0.0000
     44 H           1.6057    1.6050   -1.8596 H       1  UNL1        0.0000
     45 H           3.1463    1.4167   -2.6766 H       1  UNL1        0.0000
     46 C           5.0552    3.4573   -0.9158 C.3     1  UNL1        0.0000
     47 H           4.8429    4.0064   -1.8265 H       1  UNL1        0.0000
     48 H           5.9075    2.8154   -1.1135 H       1  UNL1        0.0000
     49 H           5.3494    4.1833   -0.1674 H       1  UNL1        0.0000
     50 C           2.0071   -0.7120   -0.1074 C.3     1  UNL1        0.0000
     51 H           1.8051   -1.7667    0.0746 H       1  UNL1        0.0000
     52 H           2.3199   -0.5928   -1.1426 H       1  UNL1        0.0000
     53 H           1.0694   -0.1666    0.0476 H       1  UNL1        0.0000
     54 C           6.8885    0.3577    5.4317 C.2     1  UNL1        0.0000
     55 H           7.6608    1.0657    5.6970 H       1  UNL1        0.0000
     56 C           6.6001   -0.6958    6.2623 C.2     1  UNL1        0.0000
     57 H           7.1452   -0.8241    7.1858 H       1  UNL1        0.0000
     58 C           5.5952   -1.6037    5.9222 C.2     1  UNL1        0.0000
     59 H           5.3702   -2.4251    6.5864 H       1  UNL1        0.0000
     60 C           4.8900   -1.4504    4.7542 C.2     1  UNL1        0.0000
     61 H           4.1027   -2.1454    4.4992 H       1  UNL1        0.0000
@<TRIPOS>BOND
     1    45    42    1
     2    43    42    1
     3    42    44    1
     4    42     1    1
     5    47    46    1
     6    52    50    1
     7    48    46    1
     8    46     1    1
     9    46    49    1
    10     1     2    1
    11     1     8    1
    12    50    53    1
    13    50    51    1
    14    50     3    1
    15    10     9    1
    16     2     3    2
    17     2     7    1
    18     3     4    1
    19     8     9    1
    20     8    13    1
    21     9    11    2
    22    41    40    1
    23    39    38    1
    24    15    14    1
    25     7    14    2
    26     7     6    1
    27    21    20    1
    28     4     5    1
    29     4     6    2
    30    40    38   ar
    31    40    31   ar
    32    30    28    1
    33    13    20    1
    34    13    12    1
    35    14    16    1
    36    38    36   ar
    37    11    28    1
    38    11    12    1
    39    20    22    2
    40     6    19    1
    41    28    31    1
    42    28    29    1
    43    12    26    1
    44    31    32   ar
    45    16    17    1
    46    16    18    2
    47    36    37    1
    48    36    34   ar
    49    22    23    1
    50    22    24    1
    51    19    18    1
    52    19    60    1
    53    32    34   ar
    54    32    33    1
    55    18    54    1
    56    26    24    2
    57    26    27    1
    58    34    35    1
    59    61    60    1
    60    24    25    1
    61    60    58    2
    62    54    55    1
    63    54    56    2
    64    58    56    1
    65    58    59    1
    66    56    57    1
