@<TRIPOS>MOLECULE
2,3,4,5,6,15,16,17,18,19
 27 28 0 0 0
SMALL
GASTEIGER

@<TRIPOS>ATOM
      1 SI         -1.0626   -0.2273    2.4519 Si      1  UNL1        0.0000
      2 C          -1.6055    1.1424    3.6375 C.3     1  UNL1        0.0000
      3 C          -2.7881    1.9110    3.4893 C.3     1  UNL1        0.0000
      4 C          -2.6719    3.0712    4.2871 C.2     1  UNL1        0.0000
      5 C          -1.3966    3.0693    4.8715 C.2     1  UNL1        0.0000
      6 C          -0.7196    1.9081    4.4373 C.3     1  UNL1        0.0000
      7 C          -2.5007   -1.2816    1.7898 C.3     1  UNL1        0.0000
      8 H          -3.6928    1.5887    2.9877 H       1  UNL1        0.0000
      9 H          -3.4519    3.8000    4.4654 H       1  UNL1        0.0000
     10 H          -1.0206    3.7965    5.5792 H       1  UNL1        0.0000
     11 H           0.2504    1.5826    4.7939 H       1  UNL1        0.0000
     12 H          -2.8798   -1.9409    2.5634 H       1  UNL1        0.0000
     13 H          -3.3272   -0.6717    1.4397 H       1  UNL1        0.0000
     14 H          -2.1719   -1.9012    0.9623 H       1  UNL1        0.0000
     15 C          -0.5196    1.1424    1.2663 C.3     1  UNL1        0.0000
     16 C           0.6628    1.9112    1.4148 C.3     1  UNL1        0.0000
     17 C           0.5466    3.0715    0.6171 C.2     1  UNL1        0.0000
     18 C          -0.7284    3.0693    0.0323 C.2     1  UNL1        0.0000
     19 C          -1.4055    1.9080    0.4663 C.3     1  UNL1        0.0000
     20 C           0.3756   -1.2815    3.1139 C.3     1  UNL1        0.0000
     21 H           1.5675    1.5888    1.9163 H       1  UNL1        0.0000
     22 H           1.3266    3.8002    0.4388 H       1  UNL1        0.0000
     23 H          -1.1045    3.7965   -0.6755 H       1  UNL1        0.0000
     24 H          -2.3754    1.5825    0.1098 H       1  UNL1        0.0000
     25 H           0.7544   -1.9412    2.3405 H       1  UNL1        0.0000
     26 H           1.2023   -0.6715    3.4636 H       1  UNL1        0.0000
     27 H           0.0469   -1.9007    3.9418 H       1  UNL1        0.0000
@<TRIPOS>BOND
     1    23    18    1
     2    18    19    1
     3    18    17    2
     4    24    19    1
     5    22    17    1
     6    19    15    1
     7    17    16    1
     8    14     7    1
     9    15    16    1
    10    15     1    1
    11    16    21    1
    12    13     7    1
    13     7     1    1
    14     7    12    1
    15    25    20    1
    16     1    20    1
    17     1     2    1
    18     8     3    1
    19    20    26    1
    20    20    27    1
    21     3     2    1
    22     3     4    1
    23     2     6    1
    24     4     9    1
    25     4     5    2
    26     6    11    1
    27     6     5    1
    28     5    10    1
