@<TRIPOS>MOLECULE
2,3,4,6,7,9,10,11,12,14
 82 84 0 0 0
SMALL
GASTEIGER

@<TRIPOS>ATOM
      1 SI          5.5360    2.1785    2.5635 Si      1  UNL1        0.0000
      2 C           4.4475    0.6380    2.4549 C.2     1  UNL1        0.0000
      3 C           3.3682    0.5253    1.5191 C.2     1  UNL1        0.0000
      4 C           2.4036   -0.3530    2.0908 C.2     1  UNL1        0.0000
      5 H           1.5025   -0.6946    1.5951 H       1  UNL1        0.0000
      6 C           2.8796   -0.7995    3.3501 C.2     1  UNL1        0.0000
      7 C           4.1265   -0.1724    3.5703 C.3     1  UNL1        0.0000
      8 H           4.7708   -0.3649    4.4199 H       1  UNL1        0.0000
      9 C           4.0367    3.3408    2.6167 C.3     1  UNL1        0.0000
     10 C           2.9788    3.2626    1.6224 C.3     1  UNL1        0.0000
     11 C           1.8577    3.9678    2.1420 C.2     1  UNL1        0.0000
     12 C           2.1913    4.4402    3.4282 C.2     1  UNL1        0.0000
     13 H           1.5697    5.0755    4.0414 H       1  UNL1        0.0000
     14 C           3.5212    4.0674    3.7276 C.3     1  UNL1        0.0000
     15 C           6.5324    2.0166    4.1873 C.3     1  UNL1        0.0000
     16 H           7.2491    1.2067    4.0918 H       1  UNL1        0.0000
     17 H           5.8940    1.7933    5.0379 H       1  UNL1        0.0000
     18 H           7.0934    2.9171    4.4101 H       1  UNL1        0.0000
     19 C           6.7681    2.5029    1.1401 C.3     1  UNL1        0.0000
     20 H           7.7857    2.4104    1.5024 H       1  UNL1        0.0000
     21 H           6.6558    3.5006    0.7311 H       1  UNL1        0.0000
     22 H           6.6417    1.7933    0.3321 H       1  UNL1        0.0000
     23 C           4.1625    2.2063   -1.1706 C.3     1  UNL1        0.0000
     24 H           4.7051    1.3020   -1.4205 H       1  UNL1        0.0000
     25 H           4.8847    2.9840   -0.9584 H       1  UNL1        0.0000
     26 H           3.6052    2.5047   -2.0515 H       1  UNL1        0.0000
     27 C           1.2500    1.4628   -0.4289 C.3     1  UNL1        0.0000
     28 H           0.8708    2.2405   -1.0821 H       1  UNL1        0.0000
     29 H           0.5173    1.2876    0.3553 H       1  UNL1        0.0000
     30 H           1.3251    0.5563   -1.0223 H       1  UNL1        0.0000
     31 C           2.2447   -1.7865    4.2988 C.3     1  UNL1        0.0000
     32 H           2.7934   -1.7169    5.2490 H       1  UNL1        0.0000
     33 C           0.7982   -1.3665    4.5848 C.3     1  UNL1        0.0000
     34 H           0.7972   -0.3609    5.0173 H       1  UNL1        0.0000
     35 H           0.3313   -2.0347    5.3034 H       1  UNL1        0.0000
     36 H           0.1950   -1.3520    3.6788 H       1  UNL1        0.0000
     37 C           2.4083   -3.2577    3.8171 C.3     1  UNL1        0.0000
     38 C           3.9064   -3.5483    3.6701 C.3     1  UNL1        0.0000
     39 H           4.4174   -3.4202    4.6220 H       1  UNL1        0.0000
     40 H           4.3590   -2.8788    2.9428 H       1  UNL1        0.0000
     41 H           4.0606   -4.5719    3.3357 H       1  UNL1        0.0000
     42 C           1.8277   -4.2158    4.8623 C.3     1  UNL1        0.0000
     43 H           2.1122   -5.2388    4.6246 H       1  UNL1        0.0000
     44 H           0.7423   -4.1688    4.8813 H       1  UNL1        0.0000
     45 H           2.2044   -3.9811    5.8556 H       1  UNL1        0.0000
     46 C           1.7253   -3.5127    2.4731 C.3     1  UNL1        0.0000
     47 H           2.2044   -2.9407    1.6835 H       1  UNL1        0.0000
     48 H           0.6708   -3.2527    2.5117 H       1  UNL1        0.0000
     49 H           1.8020   -4.5680    2.2189 H       1  UNL1        0.0000
     50 C           0.6140    4.3219    1.3627 C.3     1  UNL1        0.0000
     51 H           0.1761    3.4053    0.9529 H       1  UNL1        0.0000
     52 C           1.0154    5.2048    0.1630 C.3     1  UNL1        0.0000
     53 H           1.7070    4.6308   -0.4587 H       1  UNL1        0.0000
     54 H           0.1310    5.4200   -0.4381 H       1  UNL1        0.0000
     55 C           1.6919    6.5103    0.5621 C.3     1  UNL1        0.0000
     56 H           1.0128    7.1554    1.1129 H       1  UNL1        0.0000
     57 H           2.0215    7.0472   -0.3247 H       1  UNL1        0.0000
     58 H           2.5605    6.3087    1.1838 H       1  UNL1        0.0000
     59 C          -0.4597    4.9610    2.2545 C.3     1  UNL1        0.0000
     60 H          -0.6049    4.3117    3.1217 H       1  UNL1        0.0000
     61 H          -0.1247    5.9353    2.6123 H       1  UNL1        0.0000
     62 C          -1.8004    5.1176    1.5459 C.3     1  UNL1        0.0000
     63 H          -1.7358    5.8244    0.7224 H       1  UNL1        0.0000
     64 H          -2.5506    5.4827    2.2438 H       1  UNL1        0.0000
     65 H          -2.1364    4.1592    1.1563 H       1  UNL1        0.0000
     66 C           4.3251    4.5490    4.9121 C.3     1  UNL1        0.0000
     67 H           4.8735    3.7006    5.3384 H       1  UNL1        0.0000
     68 C           5.3764    5.5655    4.4189 C.3     1  UNL1        0.0000
     69 H           6.0277    5.8437    5.2487 H       1  UNL1        0.0000
     70 H           5.9931    5.0685    3.6660 H       1  UNL1        0.0000
     71 C           4.7725    6.8208    3.8011 C.3     1  UNL1        0.0000
     72 H           4.0641    6.5537    3.0210 H       1  UNL1        0.0000
     73 H           5.5554    7.4338    3.3600 H       1  UNL1        0.0000
     74 H           4.2573    7.4204    4.5467 H       1  UNL1        0.0000
     75 C           3.4277    5.1011    6.0292 C.3     1  UNL1        0.0000
     76 H           2.9485    6.0262    5.7075 H       1  UNL1        0.0000
     77 H           2.6440    4.3653    6.2291 H       1  UNL1        0.0000
     78 C           4.1903    5.3530    7.3250 C.3     1  UNL1        0.0000
     79 H           4.6890    4.4438    7.6538 H       1  UNL1        0.0000
     80 H           3.5029    5.6651    8.1080 H       1  UNL1        0.0000
     81 H           4.9370    6.1337    7.2016 H       1  UNL1        0.0000
     82 SI          2.9658    1.9097    0.2880 Si      1  UNL1        0.0000
@<TRIPOS>BOND
     1    26    23    1
     2    24    23    1
     3    23    25    1
     4    23    82    1
     5    28    27    1
     6    30    27    1
     7    53    52    1
     8    54    52    1
     9    27    82    1
    10    27    29    1
    11    57    55    1
    12    52    55    1
    13    52    50    1
    14    82     3    1
    15    82    10    1
    16    22    19    1
    17    55    56    1
    18    55    58    1
    19    63    62    1
    20    21    19    1
    21    51    50    1
    22    19    20    1
    23    19     1    1
    24    65    62    1
    25    50    11    1
    26    50    59    1
    27     3     4    1
    28     3     2    2
    29    62    64    1
    30    62    59    1
    31     5     4    1
    32    10    11    1
    33    10     9    1
    34    47    46    1
    35     4     6    2
    36    11    12    2
    37    49    46    1
    38    59    61    1
    39    59    60    1
    40     2     1    1
    41     2     7    1
    42    46    48    1
    43    46    37    1
    44     1     9    1
    45     1    15    1
    46     9    14    1
    47    40    38    1
    48    72    71    1
    49    41    38    1
    50     6     7    1
    51     6    31    1
    52    73    71    1
    53    12    14    1
    54    12    13    1
    55     7     8    1
    56    70    68    1
    57    38    37    1
    58    38    39    1
    59    36    33    1
    60    14    66    1
    61    71    68    1
    62    71    74    1
    63    37    31    1
    64    37    42    1
    65    16    15    1
    66    15    18    1
    67    15    17    1
    68    31    33    1
    69    31    32    1
    70    68    66    1
    71    68    69    1
    72    33    34    1
    73    33    35    1
    74    43    42    1
    75    42    44    1
    76    42    45    1
    77    66    67    1
    78    66    75    1
    79    76    75    1
    80    75    77    1
    81    75    78    1
    82    81    78    1
    83    78    79    1
    84    78    80    1
