@<TRIPOS>MOLECULE
3,4,5,7,8,10,11,12,13,15
 70 72 0 0 0
SMALL
GASTEIGER

@<TRIPOS>ATOM
      1 SI          3.5865   11.9946   17.6154 Si      1  UNL1        0.0000
      2 SI          3.5926   12.0563   14.1775 Si      1  UNL1        0.0000
      3 C           2.7655   13.3870   16.6362 C.2     1  UNL1        0.0000
      4 C           2.7759   13.4254   15.2037 C.2     1  UNL1        0.0000
      5 C           2.7022   14.7942   14.8172 C.2     1  UNL1        0.0000
      6 H           2.6229   15.1482   13.7959 H       1  UNL1        0.0000
      7 C           2.6238   15.5965   15.9843 C.2     1  UNL1        0.0000
      8 C           2.6806   14.7237   17.0943 C.3     1  UNL1        0.0000
      9 H           2.5759   15.0337   18.1273 H       1  UNL1        0.0000
     10 C           5.2014   12.1366   16.6295 C.3     1  UNL1        0.0000
     11 C           5.2080   12.1080   15.1765 C.3     1  UNL1        0.0000
     12 C           6.4650   12.6198   14.7501 C.3     1  UNL1        0.0000
     13 C           7.2029   12.9873   15.8938 C.2     1  UNL1        0.0000
     14 H           8.2216   13.3458   15.8915 H       1  UNL1        0.0000
     15 C           6.4441   12.6909   17.0480 C.2     1  UNL1        0.0000
     16 C           3.6645   12.5799   19.4334 C.3     1  UNL1        0.0000
     17 H           2.6620   12.6056   19.8493 H       1  UNL1        0.0000
     18 H           4.0850   13.5779   19.5241 H       1  UNL1        0.0000
     19 H           4.2501   11.9062   20.0485 H       1  UNL1        0.0000
     20 C           2.7616   10.2718   17.5820 C.3     1  UNL1        0.0000
     21 H           2.3912   10.0188   18.5689 H       1  UNL1        0.0000
     22 H           3.4611    9.4981   17.2865 H       1  UNL1        0.0000
     23 H           1.9220   10.2425   16.8990 H       1  UNL1        0.0000
     24 C           2.7392   10.3487   14.1082 C.3     1  UNL1        0.0000
     25 H           1.6812   10.4308   14.3274 H       1  UNL1        0.0000
     26 H           3.1732    9.6444   14.8062 H       1  UNL1        0.0000
     27 H           2.8332    9.9285   13.1134 H       1  UNL1        0.0000
     28 C           3.6963   12.7429   12.3962 C.3     1  UNL1        0.0000
     29 H           4.1724   13.7201   12.3654 H       1  UNL1        0.0000
     30 H           2.6974   12.8464   11.9831 H       1  UNL1        0.0000
     31 H           4.2444   12.0754   11.7409 H       1  UNL1        0.0000
     32 C           2.4661   17.0939   16.0885 C.3     1  UNL1        0.0000
     33 H           2.6413   17.3615   17.1403 H       1  UNL1        0.0000
     34 C           3.5579   17.7836   15.2619 C.3     1  UNL1        0.0000
     35 H           4.5388   17.4803   15.6417 H       1  UNL1        0.0000
     36 H           3.4905   18.8647   15.3485 H       1  UNL1        0.0000
     37 H           3.4981   17.5134   14.2091 H       1  UNL1        0.0000
     38 C           1.0173   17.5623   15.7645 C.3     1  UNL1        0.0000
     39 C           0.0546   16.8250   16.7025 C.3     1  UNL1        0.0000
     40 H          -0.9698   17.1373   16.5123 H       1  UNL1        0.0000
     41 H           0.2898   17.0426   17.7421 H       1  UNL1        0.0000
     42 H           0.1182   15.7501   16.5526 H       1  UNL1        0.0000
     43 C           0.8883   19.0672   16.0221 C.3     1  UNL1        0.0000
     44 H          -0.1579   19.3622   15.9764 H       1  UNL1        0.0000
     45 H           1.4287   19.6436   15.2762 H       1  UNL1        0.0000
     46 H           1.2712   19.3266   17.0068 H       1  UNL1        0.0000
     47 C           0.6149   17.2685   14.3191 C.3     1  UNL1        0.0000
     48 H           0.5751   16.1978   14.1406 H       1  UNL1        0.0000
     49 H           1.3097   17.7214   13.6170 H       1  UNL1        0.0000
     50 H          -0.3740   17.6790   14.1249 H       1  UNL1        0.0000
     51 C           6.9925   12.5767   13.3371 C.3     1  UNL1        0.0000
     52 H           6.2744   13.0562   12.6646 H       1  UNL1        0.0000
     53 C           7.1457   11.1106   12.9122 C.3     1  UNL1        0.0000
     54 H           7.8640   10.6089   13.5570 H       1  UNL1        0.0000
     55 H           7.4997   11.0483   11.8856 H       1  UNL1        0.0000
     56 H           6.1937   10.5900   12.9875 H       1  UNL1        0.0000
     57 C           8.3249   13.3112   13.1894 C.3     1  UNL1        0.0000
     58 H           8.2262   14.3438   13.5180 H       1  UNL1        0.0000
     59 H           8.6309   13.3138   12.1455 H       1  UNL1        0.0000
     60 H           9.1050   12.8230   13.7696 H       1  UNL1        0.0000
     61 C           6.9551   12.7390   18.4679 C.3     1  UNL1        0.0000
     62 H           6.1982   13.1997   19.1120 H       1  UNL1        0.0000
     63 C           7.1977   11.3046   18.9552 C.3     1  UNL1        0.0000
     64 H           7.9553   10.8260   18.3382 H       1  UNL1        0.0000
     65 H           6.2832   10.7195   18.8915 H       1  UNL1        0.0000
     66 H           7.5423   11.3069   19.9869 H       1  UNL1        0.0000
     67 C           8.2367   13.5628   18.5980 C.3     1  UNL1        0.0000
     68 H           8.5208   13.6400   19.6454 H       1  UNL1        0.0000
     69 H           8.0833   14.5687   18.2113 H       1  UNL1        0.0000
     70 H           9.0574   13.0939   18.0596 H       1  UNL1        0.0000
@<TRIPOS>BOND
     1    31    28    1
     2    55    53    1
     3    30    28    1
     4    59    57    1
     5    29    28    1
     6    28     2    1
     7    52    51    1
     8    53    56    1
     9    53    51    1
    10    53    54    1
    11    27    24    1
    12    57    51    1
    13    57    58    1
    14    57    60    1
    15    51    12    1
    16    49    47    1
    17     6     5    1
    18    24     2    1
    19    24    25    1
    20    24    26    1
    21    50    47    1
    22    48    47    1
    23     2    11    1
    24     2     4    1
    25    37    34    1
    26    47    38    1
    27    12    11    1
    28    12    13    1
    29     5     4    1
    30     5     7    2
    31    11    10    1
    32     4     3    2
    33    34    36    1
    34    34    35    1
    35    34    32    1
    36    45    43    1
    37    38    43    1
    38    38    32    1
    39    38    39    1
    40    14    13    1
    41    13    15    2
    42    44    43    1
    43     7    32    1
    44     7     8    1
    45    43    46    1
    46    32    33    1
    47    40    39    1
    48    42    39    1
    49    10    15    1
    50    10     1    1
    51     3     8    1
    52     3     1    1
    53    39    41    1
    54    23    20    1
    55    15    61    1
    56     8     9    1
    57    22    20    1
    58    20     1    1
    59    20    21    1
    60     1    16    1
    61    70    67    1
    62    69    67    1
    63    64    63    1
    64    61    67    1
    65    61    63    1
    66    61    62    1
    67    67    68    1
    68    65    63    1
    69    63    66    1
    70    16    18    1
    71    16    17    1
    72    16    19    1
