@<TRIPOS>MOLECULE
3,4,5,7,8,10,11,12,13,15
 84 88 0 0 0
SMALL
GASTEIGER

@<TRIPOS>ATOM
      1 SI         11.3056    6.7057    5.9134 Si      1  UNL1        0.0000
      2 SI         13.9321    4.7921    4.7891 Si      1  UNL1        0.0000
      3 C          12.0958    5.3614    6.9814 C.2     1  UNL1        0.0000
      4 C          13.1824    4.5524    6.5144 C.2     1  UNL1        0.0000
      5 C          13.1040    3.3048    7.1974 C.2     1  UNL1        0.0000
      6 H          13.8287    2.5033    7.1131 H       1  UNL1        0.0000
      7 C          12.0029    3.3398    8.0912 C.2     1  UNL1        0.0000
      8 C          11.3819    4.6000    7.9377 C.3     1  UNL1        0.0000
      9 H          10.5488    4.9525    8.5341 H       1  UNL1        0.0000
     10 C          11.1169    5.5359    4.4318 C.3     1  UNL1        0.0000
     11 C          12.2422    4.7721    3.9210 C.3     1  UNL1        0.0000
     12 C          11.7120    3.7359    3.1033 C.2     1  UNL1        0.0000
     13 C          10.3051    3.8269    3.1304 C.2     1  UNL1        0.0000
     14 H           9.6271    3.2125    2.5563 H       1  UNL1        0.0000
     15 C           9.9303    4.9263    3.9351 C.3     1  UNL1        0.0000
     16 C           9.6888    7.2212    6.7933 C.3     1  UNL1        0.0000
     17 H           9.9289    7.7523    7.7093 H       1  UNL1        0.0000
     18 H           9.0756    6.3647    7.0601 H       1  UNL1        0.0000
     19 H           9.0943    7.8896    6.1811 H       1  UNL1        0.0000
     20 C          12.3207    8.2874    5.5720 C.3     1  UNL1        0.0000
     21 H          12.3862    8.4998    4.5109 H       1  UNL1        0.0000
     22 H          13.3283    8.2087    5.9601 H       1  UNL1        0.0000
     23 H          11.8507    9.1402    6.0484 H       1  UNL1        0.0000
     24 C          14.9874    6.3523    4.4712 C.3     1  UNL1        0.0000
     25 H          15.3708    6.7616    5.3987 H       1  UNL1        0.0000
     26 H          14.4281    7.1300    3.9667 H       1  UNL1        0.0000
     27 H          15.8398    6.1021    3.8496 H       1  UNL1        0.0000
     28 C          15.0360    3.2587    4.4948 C.3     1  UNL1        0.0000
     29 H          15.4347    3.2410    3.4868 H       1  UNL1        0.0000
     30 H          14.4957    2.3309    4.6670 H       1  UNL1        0.0000
     31 H          15.8841    3.2808    5.1727 H       1  UNL1        0.0000
     32 C          11.5554    2.2846    9.0730 C.3     1  UNL1        0.0000
     33 H          10.5579    2.5797    9.4288 H       1  UNL1        0.0000
     34 C          11.3942    0.9438    8.3472 C.3     1  UNL1        0.0000
     35 H          10.6587    1.0584    7.5445 H       1  UNL1        0.0000
     36 H          11.0280    0.1750    9.0222 H       1  UNL1        0.0000
     37 H          12.3318    0.6059    7.9093 H       1  UNL1        0.0000
     38 C          12.4631    2.2314   10.3366 C.3     1  UNL1        0.0000
     39 C          12.4450    3.6152   10.9962 C.3     1  UNL1        0.0000
     40 H          13.0701    3.6161   11.8863 H       1  UNL1        0.0000
     41 H          11.4334    3.8874   11.2898 H       1  UNL1        0.0000
     42 H          12.8213    4.3724   10.3129 H       1  UNL1        0.0000
     43 C          11.9067    1.2103   11.3341 C.3     1  UNL1        0.0000
     44 H          12.0541    0.1930   10.9818 H       1  UNL1        0.0000
     45 H          10.8438    1.3711   11.5018 H       1  UNL1        0.0000
     46 H          12.4197    1.3096   12.2885 H       1  UNL1        0.0000
     47 C          13.9097    1.8652   10.0031 C.3     1  UNL1        0.0000
     48 H          14.4824    1.7655   10.9229 H       1  UNL1        0.0000
     49 H          14.3733    2.6412    9.4005 H       1  UNL1        0.0000
     50 H          13.9638    0.9200    9.4698 H       1  UNL1        0.0000
     51 C          12.5239    2.8278    2.2170 C.3     1  UNL1        0.0000
     52 H          13.2740    2.3041    2.8185 H       1  UNL1        0.0000
     53 C          13.2623    3.6658    1.1617 C.3     1  UNL1        0.0000
     54 H          12.5271    4.1732    0.5330 H       1  UNL1        0.0000
     55 H          13.8648    4.4307    1.6566 H       1  UNL1        0.0000
     56 C          14.1493    2.7759    0.2973 C.3     1  UNL1        0.0000
     57 H          14.9116    2.3066    0.9240 H       1  UNL1        0.0000
     58 H          14.6608    3.3799   -0.4556 H       1  UNL1        0.0000
     59 C          13.3199    1.6899   -0.3815 C.3     1  UNL1        0.0000
     60 H          12.6018    2.1558   -1.0605 H       1  UNL1        0.0000
     61 H          13.9683    1.0416   -0.9748 H       1  UNL1        0.0000
     62 C          12.5688    0.8653    0.6596 C.3     1  UNL1        0.0000
     63 H          11.9608    0.1059    0.1633 H       1  UNL1        0.0000
     64 H          13.2850    0.3503    1.3036 H       1  UNL1        0.0000
     65 C          11.6784    1.7635    1.5134 C.3     1  UNL1        0.0000
     66 H          11.1545    1.1617    2.2595 H       1  UNL1        0.0000
     67 H          10.9382    2.2448    0.8701 H       1  UNL1        0.0000
     68 C           8.5364    5.4822    4.0742 C.3     1  UNL1        0.0000
     69 H           8.3303    5.6890    5.1308 H       1  UNL1        0.0000
     70 C           8.4282    6.8048    3.2991 C.3     1  UNL1        0.0000
     71 H           9.2034    7.4948    3.6395 H       1  UNL1        0.0000
     72 H           8.5979    6.6080    2.2381 H       1  UNL1        0.0000
     73 C           7.0487    7.4259    3.4922 C.3     1  UNL1        0.0000
     74 H           6.9787    8.3583    2.9274 H       1  UNL1        0.0000
     75 H           6.9035    7.6635    4.5490 H       1  UNL1        0.0000
     76 C           5.9569    6.4604    3.0402 C.3     1  UNL1        0.0000
     77 H           4.9736    6.9027    3.2136 H       1  UNL1        0.0000
     78 H           6.0570    6.2792    1.9674 H       1  UNL1        0.0000
     79 C           6.0726    5.1354    3.7884 C.3     1  UNL1        0.0000
     80 H           5.9113    5.3026    4.8557 H       1  UNL1        0.0000
     81 H           5.3026    4.4441    3.4399 H       1  UNL1        0.0000
     82 C           7.4533    4.5213    3.5761 C.3     1  UNL1        0.0000
     83 H           7.5934    4.3262    2.5106 H       1  UNL1        0.0000
     84 H           7.5251    3.5743    4.1163 H       1  UNL1        0.0000
@<TRIPOS>BOND
     1    60    59    1
     2    61    59    1
     3    58    56    1
     4    59    56    1
     5    59    62    1
     6    63    62    1
     7    56    57    1
     8    56    53    1
     9    54    53    1
    10    62    64    1
    11    62    65    1
    12    67    65    1
    13    53    55    1
    14    53    51    1
    15    65    51    1
    16    65    66    1
    17    78    76    1
    18    51    52    1
    19    51    12    1
    20    72    70    1
    21    83    82    1
    22    14    13    1
    23    74    73    1
    24    76    77    1
    25    76    73    1
    26    76    79    1
    27    12    13    2
    28    12    11    1
    29    13    15    1
    30    70    73    1
    31    70    71    1
    32    70    68    1
    33    81    79    1
    34    29    28    1
    35    73    75    1
    36    82    79    1
    37    82    68    1
    38    82    84    1
    39    79    80    1
    40    27    24    1
    41    11    10    1
    42    11     2    1
    43    15    68    1
    44    15    10    1
    45    26    24    1
    46    68    69    1
    47    10     1    1
    48    24     2    1
    49    24    25    1
    50    28    30    1
    51    28     2    1
    52    28    31    1
    53    21    20    1
    54     2     4    1
    55    20     1    1
    56    20    22    1
    57    20    23    1
    58     1    16    1
    59     1     3    1
    60    19    16    1
    61     4     3    2
    62     4     5    1
    63    16    18    1
    64    16    17    1
    65     3     8    1
    66     6     5    1
    67     5     7    2
    68    35    34    1
    69    37    34    1
    70     8     7    1
    71     8     9    1
    72     7    32    1
    73    34    36    1
    74    34    32    1
    75    32    33    1
    76    32    38    1
    77    49    47    1
    78    50    47    1
    79    47    38    1
    80    47    48    1
    81    42    39    1
    82    38    39    1
    83    38    43    1
    84    44    43    1
    85    39    41    1
    86    39    40    1
    87    43    45    1
    88    43    46    1
