@<TRIPOS>MOLECULE
2,3,4,5,6,7,8,9,10,11
 51 52 0 0 0
SMALL
GASTEIGER

@<TRIPOS>ATOM
      1 SI          2.5101    1.2184    0.3793 Si      1  UNL1        0.0000
      2 C           3.4101    0.6415    1.9444 C.3     1  UNL1        0.0000
      3 C           4.3466    1.4678    2.6531 C.2     1  UNL1        0.0000
      4 C           4.3577    1.0843    4.0054 C.2     1  UNL1        0.0000
      5 C           3.4111    0.0109    4.1650 C.2     1  UNL1        0.0000
      6 C           2.8430   -0.2608    2.9053 C.2     1  UNL1        0.0000
      7 C           1.3988    2.3152    1.4539 C.3     1  UNL1        0.0000
      8 C           1.8342    3.5335    2.0784 C.2     1  UNL1        0.0000
      9 C           1.0668    3.7447    3.2400 C.2     1  UNL1        0.0000
     10 C           0.1392    2.6478    3.3607 C.2     1  UNL1        0.0000
     11 C           0.3453    1.7845    2.2705 C.2     1  UNL1        0.0000
     12 C           5.3465    2.4111    2.0649 C.3     1  UNL1        0.0000
     13 H           6.3554    2.0224    2.2181 H       1  UNL1        0.0000
     14 H           5.2959    3.3882    2.5434 H       1  UNL1        0.0000
     15 H           5.1950    2.5346    0.9997 H       1  UNL1        0.0000
     16 C           5.3607    1.5111    5.0319 C.3     1  UNL1        0.0000
     17 H           6.2148    0.8294    5.0245 H       1  UNL1        0.0000
     18 H           4.9294    1.4993    6.0309 H       1  UNL1        0.0000
     19 H           5.7263    2.5134    4.8228 H       1  UNL1        0.0000
     20 C           3.2659   -0.8373    5.3902 C.3     1  UNL1        0.0000
     21 H           3.9905   -1.6547    5.3713 H       1  UNL1        0.0000
     22 H           2.2689   -1.2682    5.4444 H       1  UNL1        0.0000
     23 H           3.4362   -0.2524    6.2917 H       1  UNL1        0.0000
     24 C           1.9928   -1.4614    2.6454 C.3     1  UNL1        0.0000
     25 H           2.5804   -2.3709    2.7894 H       1  UNL1        0.0000
     26 H           1.6088   -1.4691    1.6332 H       1  UNL1        0.0000
     27 H           1.1546   -1.5002    3.3392 H       1  UNL1        0.0000
     28 C           2.7502    4.5709    1.5136 C.3     1  UNL1        0.0000
     29 H           2.1748    5.4458    1.2028 H       1  UNL1        0.0000
     30 H           3.2874    4.2011    0.6495 H       1  UNL1        0.0000
     31 H           3.4720    4.9008    2.2595 H       1  UNL1        0.0000
     32 C           1.0155    5.0084    4.0418 C.3     1  UNL1        0.0000
     33 H           0.2477    5.6744    3.6408 H       1  UNL1        0.0000
     34 H           1.9686    5.5300    4.0045 H       1  UNL1        0.0000
     35 H           0.7744    4.8051    5.0835 H       1  UNL1        0.0000
     36 C          -1.0036    2.5782    4.3238 C.3     1  UNL1        0.0000
     37 H          -1.8846    3.0663    3.9001 H       1  UNL1        0.0000
     38 H          -0.7557    3.0767    5.2584 H       1  UNL1        0.0000
     39 H          -1.2592    1.5438    4.5421 H       1  UNL1        0.0000
     40 C          -0.5785    0.6563    1.9442 C.3     1  UNL1        0.0000
     41 H          -1.5880    1.0408    1.7838 H       1  UNL1        0.0000
     42 H          -0.6280   -0.0585    2.7640 H       1  UNL1        0.0000
     43 H          -0.2714    0.1385    1.0441 H       1  UNL1        0.0000
     44 C           1.6555   -0.1018   -0.7136 C.3     1  UNL1        0.0000
     45 H           2.4079   -0.6012   -1.3158 H       1  UNL1        0.0000
     46 H           0.9664    0.3868   -1.3959 H       1  UNL1        0.0000
     47 H           1.1031   -0.8708   -0.1897 H       1  UNL1        0.0000
     48 C           3.5583    2.0564   -0.9875 C.3     1  UNL1        0.0000
     49 H           4.0556    2.9775   -0.7127 H       1  UNL1        0.0000
     50 H           2.9180    2.2780   -1.8355 H       1  UNL1        0.0000
     51 H           4.3214    1.3641   -1.3302 H       1  UNL1        0.0000
@<TRIPOS>BOND
     1    50    48    1
     2    46    44    1
     3    51    48    1
     4    45    44    1
     5    48    49    1
     6    48     1    1
     7    44    47    1
     8    44     1    1
     9     1     7    1
    10     1     2    1
    11    30    28    1
    12    15    12    1
    13    43    40    1
    14    29    28    1
    15     7     8    1
    16     7    11    1
    17    28     8    1
    18    28    31    1
    19    26    24    1
    20    41    40    1
    21    40    11    1
    22    40    42    1
    23     2     3    1
    24     2     6    1
    25    12    13    1
    26    12    14    1
    27    12     3    1
    28     8     9    2
    29    11    10    2
    30    24    25    1
    31    24     6    1
    32    24    27    1
    33     3     4    2
    34     6     5    2
    35     9    10    1
    36     9    32    1
    37    10    36    1
    38    33    32    1
    39    37    36    1
    40    34    32    1
    41     4     5    1
    42     4    16    1
    43    32    35    1
    44     5    20    1
    45    36    39    1
    46    36    38    1
    47    19    16    1
    48    17    16    1
    49    16    18    1
    50    21    20    1
    51    20    22    1
    52    20    23    1
