@<TRIPOS>MOLECULE
3,5,7,9,11,12,14,16,18
 31 32 0 0 0
SMALL
GASTEIGER

@<TRIPOS>ATOM
      1 SI          1.4093    2.6698    2.8856 Si      1  UNL1        0.0000
      2 C           2.1618    3.2579    4.5213 C.3     1  UNL1        0.0000
      3 C           1.6394    4.3243    5.3091 C.3     1  UNL1        0.0000
      4 H           0.5957    4.6164    5.3642 H       1  UNL1        0.0000
      5 C           2.6621    4.7955    6.1615 C.2     1  UNL1        0.0000
      6 H           2.5428    5.5199    6.9586 H       1  UNL1        0.0000
      7 C           3.8379    4.0685    5.8758 C.2     1  UNL1        0.0000
      8 H           4.7776    4.1449    6.4110 H       1  UNL1        0.0000
      9 C           3.5387    3.1392    4.8536 C.3     1  UNL1        0.0000
     10 H           4.2155    2.3784    4.4791 H       1  UNL1        0.0000
     11 C           1.9191    4.2570    1.9843 C.3     1  UNL1        0.0000
     12 C           3.2087    4.4959    1.4346 C.2     1  UNL1        0.0000
     13 H           3.8913    3.7357    1.0696 H       1  UNL1        0.0000
     14 C           3.3843    5.8906    1.2856 C.2     1  UNL1        0.0000
     15 H           4.2205    6.3775    0.7969 H       1  UNL1        0.0000
     16 C           2.2238    6.5306    1.7720 C.2     1  UNL1        0.0000
     17 H           2.0143    7.5924    1.7144 H       1  UNL1        0.0000
     18 C           1.3359    5.5339    2.2323 C.2     1  UNL1        0.0000
     19 H           0.3187    5.7092    2.5674 H       1  UNL1        0.0000
     20 C           2.2731    1.1225    2.1920 C.3     1  UNL1        0.0000
     21 H           1.8596    0.8602    1.2241 H       1  UNL1        0.0000
     22 H           2.1285    0.2729    2.8509 H       1  UNL1        0.0000
     23 H           3.3417    1.2717    2.0716 H       1  UNL1        0.0000
     24 C          -0.4926    2.4384    2.9707 C.3     1  UNL1        0.0000
     25 H          -0.7245    1.5946    3.6185 H       1  UNL1        0.0000
     26 H          -0.9593    3.3247    3.4002 H       1  UNL1        0.0000
     27 C          -1.0414    2.1976    1.6074 C.2     1  UNL1        0.0000
     28 H          -1.0589    3.0613    0.9567 H       1  UNL1        0.0000
     29 C          -1.4597    1.0258    1.1657 C.2     1  UNL1        0.0000
     30 H          -1.4494    0.1498    1.7932 H       1  UNL1        0.0000
     31 H          -1.8373    0.8930    0.1668 H       1  UNL1        0.0000
@<TRIPOS>BOND
     1    31    29    1
     2    15    14    1
     3    28    27    1
     4    13    12    1
     5    29    27    2
     6    29    30    1
     7    21    20    1
     8    14    12    2
     9    14    16    1
    10    12    11    1
    11    27    24    1
    12    17    16    1
    13    16    18    2
    14    11    18    1
    15    11     1    1
    16    23    20    1
    17    20    22    1
    18    20     1    1
    19    18    19    1
    20     1    24    1
    21     1     2    1
    22    24    26    1
    23    24    25    1
    24    10     9    1
    25     2     9    1
    26     2     3    1
    27     9     7    1
    28     3     4    1
    29     3     5    1
    30     7     5    2
    31     7     8    1
    32     5     6    1
