@<TRIPOS>MOLECULE
2,3,4,5,6,32,33,34,35
 51 52 0 0 0
SMALL
GASTEIGER

@<TRIPOS>ATOM
      1 SI          0.6415   -0.0000    5.2753 Si      1  UNL1        0.0000
      2 C           1.6351    1.3461    4.3747 C.3     1  UNL1        0.0000
      3 C           1.3434    1.8167    3.0645 C.2     1  UNL1        0.0000
      4 C           2.5254    2.3728    2.5093 C.2     1  UNL1        0.0000
      5 C           3.5568    2.2687    3.4730 C.2     1  UNL1        0.0000
      6 C           3.0296    1.6057    4.6097 C.2     1  UNL1        0.0000
      7 C          -0.0135    1.9539    2.4399 C.3     1  UNL1        0.0000
      8 H          -0.0734    2.9046    1.9102 H       1  UNL1        0.0000
      9 H          -0.7851    1.9420    3.2039 H       1  UNL1        0.0000
     10 H          -0.2147    1.1633    1.7148 H       1  UNL1        0.0000
     11 C           2.6512    3.0983    1.2056 C.3     1  UNL1        0.0000
     12 H           2.5777    4.1768    1.3683 H       1  UNL1        0.0000
     13 H           1.8701    2.7952    0.5116 H       1  UNL1        0.0000
     14 H           3.6187    2.8898    0.7468 H       1  UNL1        0.0000
     15 C           4.8829    2.9576    3.3612 C.3     1  UNL1        0.0000
     16 H           5.3628    2.7380    2.4071 H       1  UNL1        0.0000
     17 H           5.5571    2.6616    4.1608 H       1  UNL1        0.0000
     18 H           4.7332    4.0386    3.4197 H       1  UNL1        0.0000
     19 C           3.7096    1.6358    5.9481 C.3     1  UNL1        0.0000
     20 H           4.7251    1.2438    5.9052 H       1  UNL1        0.0000
     21 H           3.1520    1.0809    6.6937 H       1  UNL1        0.0000
     22 H           3.7781    2.6737    6.2847 H       1  UNL1        0.0000
     23 C          -1.2455   -0.0001    4.9636 C.3     1  UNL1        0.0000
     24 H          -1.5351   -0.0002    3.9211 H       1  UNL1        0.0000
     25 H          -1.6881    0.8734    5.4331 H       1  UNL1        0.0000
     26 H          -1.6880   -0.8737    5.4332 H       1  UNL1        0.0000
     27 C           0.7102    0.0002    7.1937 C.3     1  UNL1        0.0000
     28 H          -0.3036    0.0003    7.5787 H       1  UNL1        0.0000
     29 H           1.2014    0.8782    7.5979 H       1  UNL1        0.0000
     30 H           1.2014   -0.8777    7.5981 H       1  UNL1        0.0000
     31 C           1.6351   -1.3462    4.3748 C.3     1  UNL1        0.0000
     32 C           1.3434   -1.8167    3.0646 C.3     1  UNL1        0.0000
     33 C           2.5255   -2.3727    2.5094 C.2     1  UNL1        0.0000
     34 C           3.5569   -2.2687    3.4731 C.2     1  UNL1        0.0000
     35 C           3.0296   -1.6058    4.6098 C.3     1  UNL1        0.0000
     36 C          -0.0134   -1.9538    2.4399 C.3     1  UNL1        0.0000
     37 H          -0.0732   -2.9043    1.9097 H       1  UNL1        0.0000
     38 H          -0.7850   -1.9425    3.2039 H       1  UNL1        0.0000
     39 H          -0.2149   -1.1629    1.7153 H       1  UNL1        0.0000
     40 C           2.6513   -3.0982    1.2056 C.3     1  UNL1        0.0000
     41 H           2.5777   -4.1767    1.3682 H       1  UNL1        0.0000
     42 H           1.8703   -2.7950    0.5116 H       1  UNL1        0.0000
     43 H           3.6188   -2.8897    0.7469 H       1  UNL1        0.0000
     44 C           4.8830   -2.9576    3.3614 C.3     1  UNL1        0.0000
     45 H           5.3628   -2.7381    2.4072 H       1  UNL1        0.0000
     46 H           5.5572   -2.6614    4.1608 H       1  UNL1        0.0000
     47 H           4.7333   -4.0386    3.4201 H       1  UNL1        0.0000
     48 C           3.7096   -1.6361    5.9482 C.3     1  UNL1        0.0000
     49 H           4.7248   -1.2430    5.9056 H       1  UNL1        0.0000
     50 H           3.1514   -1.0822    6.6941 H       1  UNL1        0.0000
     51 H           3.7791   -2.6741    6.2841 H       1  UNL1        0.0000
@<TRIPOS>BOND
     1    42    40    1
     2    13    11    1
     3    14    11    1
     4    43    40    1
     5    40    41    1
     6    40    33    1
     7    11    12    1
     8    11     4    1
     9    10     7    1
    10    39    36    1
    11    37    36    1
    12     8     7    1
    13    16    15    1
    14    45    44    1
    15     7     3    1
    16     7     9    1
    17    36    32    1
    18    36    38    1
    19     4     3    2
    20     4     5    1
    21    33    32    1
    22    33    34    2
    23     3     2    1
    24    32    31    1
    25    15    18    1
    26    15     5    1
    27    15    17    1
    28    44    47    1
    29    44    34    1
    30    44    46    1
    31     5     6    2
    32    34    35    1
    33    24    23    1
    34     2     6    1
    35     2     1    1
    36    31    35    1
    37    31     1    1
    38     6    19    1
    39    35    48    1
    40    23     1    1
    41    23    25    1
    42    23    26    1
    43     1    27    1
    44    20    19    1
    45    49    48    1
    46    19    22    1
    47    19    21    1
    48    48    51    1
    49    48    50    1
    50    27    28    1
    51    27    29    1
    52    27    30    1
