@<TRIPOS>MOLECULE
2,3,4,5,6,7,8,9,10,11
 51 52 0 0 0
SMALL
GASTEIGER

@<TRIPOS>ATOM
      1 SI         12.3697    4.5008    4.6581 Si      1  UNL1        0.0000
      2 C          11.4730    5.9681    5.4658 C.3     1  UNL1        0.0000
      3 C          10.1660    5.9154    6.0141 C.2     1  UNL1        0.0000
      4 C           9.6242    7.2269    6.0295 C.2     1  UNL1        0.0000
      5 C          10.5901    8.1097    5.4961 C.3     1  UNL1        0.0000
      6 C          11.7148    7.3412    5.1043 C.3     1  UNL1        0.0000
      7 C          11.4748    4.7976    3.0114 C.2     1  UNL1        0.0000
      8 C          10.1428    4.3759    2.7464 C.3     1  UNL1        0.0000
      9 C           9.6098    5.1878    1.7107 C.2     1  UNL1        0.0000
     10 C          10.6072    6.1150    1.3240 C.2     1  UNL1        0.0000
     11 C          11.7438    5.9032    2.1398 C.2     1  UNL1        0.0000
     12 C           9.5025    4.7546    6.6945 C.3     1  UNL1        0.0000
     13 H           9.2944    5.0174    7.7340 H       1  UNL1        0.0000
     14 H          10.1428    3.8790    6.6909 H       1  UNL1        0.0000
     15 H           8.5489    4.5064    6.2229 H       1  UNL1        0.0000
     16 C           8.3195    7.6445    6.6349 C.3     1  UNL1        0.0000
     17 H           8.4784    8.0206    7.6490 H       1  UNL1        0.0000
     18 H           7.6251    6.8080    6.6829 H       1  UNL1        0.0000
     19 H           7.8638    8.4412    6.0464 H       1  UNL1        0.0000
     20 C          10.4709    9.6040    5.5422 C.3     1  UNL1        0.0000
     21 H           9.5174    9.9333    5.1268 H       1  UNL1        0.0000
     22 H          11.2690   10.0903    4.9870 H       1  UNL1        0.0000
     23 H          10.5205    9.9416    6.5804 H       1  UNL1        0.0000
     24 C          13.0597    7.9517    4.8284 C.3     1  UNL1        0.0000
     25 H          12.9734    8.8672    4.2445 H       1  UNL1        0.0000
     26 H          13.7208    7.2685    4.3083 H       1  UNL1        0.0000
     27 H          13.5327    8.2147    5.7785 H       1  UNL1        0.0000
     28 C           9.4796    3.1437    3.2905 C.3     1  UNL1        0.0000
     29 H          10.1804    2.3094    3.2712 H       1  UNL1        0.0000
     30 H           8.6214    2.8774    2.6764 H       1  UNL1        0.0000
     31 H           9.1313    3.2797    4.3150 H       1  UNL1        0.0000
     32 C           8.2866    5.0364    1.0227 C.3     1  UNL1        0.0000
     33 H           7.9025    6.0133    0.7278 H       1  UNL1        0.0000
     34 H           7.5527    4.5636    1.6733 H       1  UNL1        0.0000
     35 H           8.3966    4.4277    0.1212 H       1  UNL1        0.0000
     36 C          10.5118    7.0071    0.1223 C.3     1  UNL1        0.0000
     37 H          10.4688    6.3977   -0.7839 H       1  UNL1        0.0000
     38 H          11.3717    7.6686    0.0517 H       1  UNL1        0.0000
     39 H           9.6104    7.6206    0.1563 H       1  UNL1        0.0000
     40 C          13.1074    6.4395    1.8027 C.3     1  UNL1        0.0000
     41 H          13.3367    6.1963    0.7624 H       1  UNL1        0.0000
     42 H          13.8690    5.9768    2.4229 H       1  UNL1        0.0000
     43 H          13.1769    7.5229    1.9028 H       1  UNL1        0.0000
     44 C          12.1080    2.7686    5.4331 C.3     1  UNL1        0.0000
     45 H          12.7136    2.0452    4.8956 H       1  UNL1        0.0000
     46 H          11.0875    2.4097    5.4227 H       1  UNL1        0.0000
     47 H          12.4519    2.7712    6.4631 H       1  UNL1        0.0000
     48 C          14.2874    4.5509    4.6432 C.3     1  UNL1        0.0000
     49 H          14.6550    4.1782    5.5936 H       1  UNL1        0.0000
     50 H          14.7333    5.5256    4.4921 H       1  UNL1        0.0000
     51 H          14.6667    3.8900    3.8698 H       1  UNL1        0.0000
@<TRIPOS>BOND
     1    37    36    1
     2    38    36    1
     3    35    32    1
     4    36    39    1
     5    36    10    1
     6    33    32    1
     7    41    40    1
     8    32    34    1
     9    32     9    1
    10    10     9    2
    11    10    11    1
    12     9     8    1
    13    40    43    1
    14    40    11    1
    15    40    42    1
    16    11     7    2
    17    30    28    1
    18     8     7    1
    19     8    28    1
    20     7     1    1
    21    29    28    1
    22    28    31    1
    23    51    48    1
    24    25    24    1
    25    26    24    1
    26    50    48    1
    27    48     1    1
    28    48    49    1
    29     1    44    1
    30     1     2    1
    31    24     6    1
    32    24    27    1
    33    45    44    1
    34    22    20    1
    35     6     2    1
    36     6     5    1
    37    21    20    1
    38    46    44    1
    39    44    47    1
    40     2     3    1
    41     5    20    1
    42     5     4    1
    43    20    23    1
    44     3     4    2
    45     3    12    1
    46     4    16    1
    47    19    16    1
    48    15    12    1
    49    16    18    1
    50    16    17    1
    51    14    12    1
    52    12    13    1
