@<TRIPOS>MOLECULE
1,2,3,4,5,31,32,33,34,35
 51 52 0 0 0
SMALL
GASTEIGER

@<TRIPOS>ATOM
      1 C           6.6110    1.4048    0.7453 C.3     1  UNL1        0.0000
      2 C           5.2806    0.9310    0.9365 C.2     1  UNL1        0.0000
      3 C           5.1707    0.4039    2.2436 C.2     1  UNL1        0.0000
      4 C           6.4319    0.5355    2.8822 C.2     1  UNL1        0.0000
      5 C           7.3184    1.1631    1.9684 C.2     1  UNL1        0.0000
      6 C           4.2218    0.7905   -0.1162 C.3     1  UNL1        0.0000
      7 H           3.6962   -0.1546    0.0209 H       1  UNL1        0.0000
      8 H           4.6696    0.7897   -1.1058 H       1  UNL1        0.0000
      9 H           3.4789    1.5882   -0.0608 H       1  UNL1        0.0000
     10 C           3.9973   -0.3199    2.8290 C.3     1  UNL1        0.0000
     11 H           3.0745   -0.0432    2.3237 H       1  UNL1        0.0000
     12 H           3.8930   -0.0804    3.8881 H       1  UNL1        0.0000
     13 H           4.1392   -1.3999    2.7362 H       1  UNL1        0.0000
     14 C           6.8107   -0.1794    4.1452 C.3     1  UNL1        0.0000
     15 H           6.0574   -0.0438    4.9211 H       1  UNL1        0.0000
     16 H           7.7668    0.1660    4.5302 H       1  UNL1        0.0000
     17 H           6.8920   -1.2499    3.9387 H       1  UNL1        0.0000
     18 C           8.8104    1.1104    2.1231 C.3     1  UNL1        0.0000
     19 H           9.1531    1.5528    3.0575 H       1  UNL1        0.0000
     20 H           9.3112    1.6011    1.2966 H       1  UNL1        0.0000
     21 H           9.1254    0.0635    2.1280 H       1  UNL1        0.0000
     22 C           6.1352    2.7610   -2.1505 C.3     1  UNL1        0.0000
     23 H           5.0579    2.7609   -2.0511 H       1  UNL1        0.0000
     24 H           6.4166    1.8880   -2.7317 H       1  UNL1        0.0000
     25 H           6.4166    3.6340   -2.7317 H       1  UNL1        0.0000
     26 C           8.8933    2.7610   -1.1480 C.3     1  UNL1        0.0000
     27 H           9.6746    2.7604   -0.3986 H       1  UNL1        0.0000
     28 H           9.0459    3.6359   -1.7717 H       1  UNL1        0.0000
     29 H           9.0455    1.8867   -1.7726 H       1  UNL1        0.0000
     30 SI          7.0927    2.7611   -0.4945 Si      1  UNL1        0.0000
     31 C           6.6110    4.1176    0.7451 C.3     1  UNL1        0.0000
     32 C           5.2806    4.5913    0.9363 C.2     1  UNL1        0.0000
     33 C           5.1707    5.1184    2.2435 C.2     1  UNL1        0.0000
     34 C           6.4321    4.9869    2.8819 C.2     1  UNL1        0.0000
     35 C           7.3185    4.3594    1.9681 C.2     1  UNL1        0.0000
     36 C           4.2218    4.7318   -0.1162 C.3     1  UNL1        0.0000
     37 H           3.6966    5.6773    0.0206 H       1  UNL1        0.0000
     38 H           4.6694    4.7319   -1.1059 H       1  UNL1        0.0000
     39 H           3.4784    3.9345   -0.0603 H       1  UNL1        0.0000
     40 C           3.9974    5.8420    2.8289 C.3     1  UNL1        0.0000
     41 H           3.0746    5.5653    2.3237 H       1  UNL1        0.0000
     42 H           3.8932    5.6026    3.8881 H       1  UNL1        0.0000
     43 H           4.1392    6.9220    2.7362 H       1  UNL1        0.0000
     44 C           6.8109    5.7018    4.1449 C.3     1  UNL1        0.0000
     45 H           6.0578    5.5660    4.9209 H       1  UNL1        0.0000
     46 H           7.7672    5.3566    4.5297 H       1  UNL1        0.0000
     47 H           6.8920    6.7723    3.9384 H       1  UNL1        0.0000
     48 C           8.8106    4.4121    2.1226 C.3     1  UNL1        0.0000
     49 H           9.1536    3.9675    3.0559 H       1  UNL1        0.0000
     50 H           9.3112    3.9235    1.2948 H       1  UNL1        0.0000
     51 H           9.1252    5.4590    2.1300 H       1  UNL1        0.0000
@<TRIPOS>BOND
     1    25    22    1
     2    24    22    1
     3    22    23    1
     4    22    30    1
     5    29    26    1
     6    28    26    1
     7    26    30    1
     8    26    27    1
     9    38    36    1
    10     8     6    1
    11    30    31    1
    12    30     1    1
    13    36    39    1
    14    36    37    1
    15    36    32    1
    16     6     9    1
    17     6     7    1
    18     6     2    1
    19    31    32    1
    20    31    35    1
    21     1     2    1
    22     1     5    1
    23    32    33    2
    24     2     3    2
    25    50    48    1
    26    20    18    1
    27    35    48    1
    28    35    34    2
    29     5    18    1
    30     5     4    2
    31    48    51    1
    32    48    49    1
    33    18    21    1
    34    18    19    1
    35    33    40    1
    36    33    34    1
    37     3    10    1
    38     3     4    1
    39    11    10    1
    40    41    40    1
    41    43    40    1
    42    13    10    1
    43    40    42    1
    44    10    12    1
    45    34    44    1
    46     4    14    1
    47    47    44    1
    48    17    14    1
    49    44    46    1
    50    44    45    1
    51    14    16    1
    52    14    15    1
