@<TRIPOS>MOLECULE
2,3,5,6,7,23,24,26,27,28
 51 54 0 0 0
SMALL
GASTEIGER

@<TRIPOS>ATOM
      1 SI         10.1983    2.1936   11.5518 Si      1  UNL1        0.0000
      2 C          11.0125    1.4549   10.0065 C.3     1  UNL1        0.0000
      3 C          10.6238    1.8113    8.6801 C.3     1  UNL1        0.0000
      4 H          10.2454    2.7857    8.3862 H       1  UNL1        0.0000
      5 C          10.8659    0.7511    7.7834 C.3     1  UNL1        0.0000
      6 C          11.4645   -0.3109    8.5359 C.ar    1  UNL1        0.0000
      7 C          11.5599    0.1270    9.9129 C.ar    1  UNL1        0.0000
      8 C          12.2290   -0.6937   10.8396 C.ar    1  UNL1        0.0000
      9 H          12.4324   -0.3295   11.8360 H       1  UNL1        0.0000
     10 C          12.6921   -1.9238   10.4416 C.ar    1  UNL1        0.0000
     11 H          13.2086   -2.5551   11.1490 H       1  UNL1        0.0000
     12 C          12.5343   -2.3736    9.1199 C.ar    1  UNL1        0.0000
     13 H          12.9120   -3.3485    8.8514 H       1  UNL1        0.0000
     14 C          11.9520   -1.5796    8.1643 C.ar    1  UNL1        0.0000
     15 H          11.8840   -1.9102    7.1366 H       1  UNL1        0.0000
     16 C          10.6330    0.7514    6.2980 C.3     1  UNL1        0.0000
     17 H          10.2179   -0.2183    5.9954 H       1  UNL1        0.0000
     18 H           9.9034    1.5261    6.0432 H       1  UNL1        0.0000
     19 C          11.9357    1.0114    5.5350 C.3     1  UNL1        0.0000
     20 H          11.7562    1.0018    4.4627 H       1  UNL1        0.0000
     21 H          12.6750    0.2498    5.7717 H       1  UNL1        0.0000
     22 H          12.3442    1.9812    5.8105 H       1  UNL1        0.0000
     23 C           8.7905    0.9258   11.6378 C.3     1  UNL1        0.0000
     24 C           7.5628    1.0822   10.9269 C.3     1  UNL1        0.0000
     25 H           7.0976    2.0359   10.6967 H       1  UNL1        0.0000
     26 C           6.9931   -0.1715   10.6257 C.3     1  UNL1        0.0000
     27 C           7.8508   -1.1718   11.1883 C.ar    1  UNL1        0.0000
     28 C           8.9623   -0.4917   11.8199 C.ar    1  UNL1        0.0000
     29 C           9.8906   -1.2507   12.5562 C.ar    1  UNL1        0.0000
     30 H          10.6462   -0.7548   13.1477 H       1  UNL1        0.0000
     31 C           9.7756   -2.6190   12.5815 C.ar    1  UNL1        0.0000
     32 H          10.4845   -3.2048   13.1473 H       1  UNL1        0.0000
     33 C           8.7345   -3.2794   11.9075 C.ar    1  UNL1        0.0000
     34 H           8.6840   -4.3567   11.9525 H       1  UNL1        0.0000
     35 C           7.7650   -2.5774   11.2367 C.ar    1  UNL1        0.0000
     36 H           6.9355   -3.0894   10.7679 H       1  UNL1        0.0000
     37 C           5.6853   -0.4275    9.9295 C.3     1  UNL1        0.0000
     38 H           5.4083    0.4508    9.3383 H       1  UNL1        0.0000
     39 H           5.7993   -1.2762    9.2434 H       1  UNL1        0.0000
     40 C           4.5728   -0.7304   10.9382 C.3     1  UNL1        0.0000
     41 H           3.6345   -0.9204   10.4231 H       1  UNL1        0.0000
     42 H           4.4358    0.1142   11.6098 H       1  UNL1        0.0000
     43 H           4.8263   -1.6035   11.5349 H       1  UNL1        0.0000
     44 C          11.3019    2.3320   13.0975 C.3     1  UNL1        0.0000
     45 H          12.1114    3.0315   12.9193 H       1  UNL1        0.0000
     46 H          11.7435    1.3871   13.3909 H       1  UNL1        0.0000
     47 H          10.7254    2.7006   13.9390 H       1  UNL1        0.0000
     48 C           9.4606    3.8941   11.1006 C.3     1  UNL1        0.0000
     49 H          10.2448    4.6180   10.9079 H       1  UNL1        0.0000
     50 H           8.8547    4.2815   11.9123 H       1  UNL1        0.0000
     51 H           8.8338    3.8371   10.2141 H       1  UNL1        0.0000
@<TRIPOS>BOND
     1    20    19    1
     2    19    21    1
     3    19    22    1
     4    19    16    1
     5    17    16    1
     6    18    16    1
     7    16     5    1
     8    15    14    1
     9     5     6    1
    10     5     3    1
    11    14     6   ar
    12    14    12   ar
    13     4     3    1
    14     6     7   ar
    15     3     2    1
    16    13    12    1
    17    12    10   ar
    18    39    37    1
    19    38    37    1
    20     7     2    1
    21     7     8   ar
    22    37    26    1
    23    37    40    1
    24     2     1    1
    25    51    48    1
    26    41    40    1
    27    10     8   ar
    28    10    11    1
    29    26    24    1
    30    26    27    1
    31    25    24    1
    32    36    35    1
    33     8     9    1
    34    49    48    1
    35    24    23    1
    36    40    43    1
    37    40    42    1
    38    48     1    1
    39    48    50    1
    40    27    35   ar
    41    27    28   ar
    42    35    33   ar
    43     1    23    1
    44     1    44    1
    45    23    28    1
    46    28    29   ar
    47    33    34    1
    48    33    31   ar
    49    29    31   ar
    50    29    30    1
    51    31    32    1
    52    45    44    1
    53    44    46    1
    54    44    47    1
