@<TRIPOS>MOLECULE
6,7,8,9,10,13,14,15,16,17
 41 42 0 0 0
SMALL
GASTEIGER

@<TRIPOS>ATOM
      1 SI          4.5220   -0.5040    2.7233 Si      1  UNL1        0.0000
      2 C           3.8356   -2.2688    2.7830 C.2     1  UNL1        0.0000
      3 C           4.4943   -3.2835    3.3205 C.2     1  UNL1        0.0000
      4 C           6.3570   -0.5884    2.2690 C.2     1  UNL1        0.0000
      5 C           7.3475   -0.4343    3.1341 C.2     1  UNL1        0.0000
      6 C           3.4565    0.6003    1.6208 C.3     1  UNL1        0.0000
      7 C           3.8169    1.8868    1.1305 C.3     1  UNL1        0.0000
      8 C           2.6289    2.5779    0.7861 C.3     1  UNL1        0.0000
      9 C           1.5210    1.7537    1.0973 C.2     1  UNL1        0.0000
     10 C           2.0267    0.5540    1.6462 C.2     1  UNL1        0.0000
     11 C           5.2050    2.4404    0.9556 C.3     1  UNL1        0.0000
     12 C           0.0840    2.0691    0.8023 C.3     1  UNL1        0.0000
     13 C           4.2117    0.5636    4.2538 C.3     1  UNL1        0.0000
     14 C           3.0196    0.5831    5.0306 C.3     1  UNL1        0.0000
     15 C           2.9730    1.8085    5.7393 C.3     1  UNL1        0.0000
     16 C           4.1082    2.5776    5.3866 C.2     1  UNL1        0.0000
     17 C           4.8489    1.8322    4.4426 C.2     1  UNL1        0.0000
     18 C           1.9840   -0.5033    5.1298 C.3     1  UNL1        0.0000
     19 C           4.4978    3.8942    5.9918 C.3     1  UNL1        0.0000
     20 H           2.8714   -2.4631    2.3304 H       1  UNL1        0.0000
     21 H           5.4624   -3.1470    3.7731 H       1  UNL1        0.0000
     22 H           4.1027   -4.2890    3.3363 H       1  UNL1        0.0000
     23 H           6.5990   -0.8371    1.2434 H       1  UNL1        0.0000
     24 H           8.3847   -0.5325    2.8513 H       1  UNL1        0.0000
     25 H           7.1616   -0.1995    4.1693 H       1  UNL1        0.0000
     26 H           2.5798    3.5396    0.2870 H       1  UNL1        0.0000
     27 H           1.4274   -0.3157    1.8942 H       1  UNL1        0.0000
     28 H           5.9548    1.7368    1.3152 H       1  UNL1        0.0000
     29 H           5.4055    2.6418   -0.0984 H       1  UNL1        0.0000
     30 H           5.3077    3.3864    1.4985 H       1  UNL1        0.0000
     31 H          -0.1422    1.8583   -0.2454 H       1  UNL1        0.0000
     32 H          -0.5784    1.4686    1.4249 H       1  UNL1        0.0000
     33 H          -0.1247    3.1235    0.9888 H       1  UNL1        0.0000
     34 H           2.2401    2.0737    6.4936 H       1  UNL1        0.0000
     35 H           5.8227    2.1111    4.0540 H       1  UNL1        0.0000
     36 H           2.3174   -1.4031    4.6152 H       1  UNL1        0.0000
     37 H           1.0333   -0.1691    4.6982 H       1  UNL1        0.0000
     38 H           1.7988   -0.7564    6.1747 H       1  UNL1        0.0000
     39 H           5.1813    4.4329    5.3362 H       1  UNL1        0.0000
     40 H           3.6178    4.5155    6.1630 H       1  UNL1        0.0000
     41 H           4.9938    3.7362    6.9523 H       1  UNL1        0.0000
@<TRIPOS>BOND
     1    31    12    1
     2    29    11    1
     3    26     8    1
     4     8     9    1
     5     8     7    1
     6    12    33    1
     7    12     9    1
     8    12    32    1
     9    11     7    1
    10    11    28    1
    11    11    30    1
    12     9    10    2
    13     7     6    1
    14    23     4    1
    15     6    10    1
    16     6     1    1
    17    10    27    1
    18     4     1    1
    19     4     5    2
    20    20     2    1
    21     1     2    1
    22     1    13    1
    23     2     3    2
    24    24     5    1
    25     5    25    1
    26     3    22    1
    27     3    21    1
    28    35    17    1
    29    13    17    1
    30    13    14    1
    31    17    16    2
    32    36    18    1
    33    37    18    1
    34    14    18    1
    35    14    15    1
    36    18    38    1
    37    39    19    1
    38    16    15    1
    39    16    19    1
    40    15    34    1
    41    19    40    1
    42    19    41    1
