@<TRIPOS>MOLECULE
2,3,4,5,6,8,9,10,11
 51 52 0 0 0
SMALL
GASTEIGER

@<TRIPOS>ATOM
      1 SI         -3.7625    2.8053    5.2359 Si      1  UNL1        0.0000
      2 C          -2.8131    2.5685    3.6071 C.3     1  UNL1        0.0000
      3 C          -1.4220    2.8939    3.4426 C.2     1  UNL1        0.0000
      4 C          -0.9314    2.1336    2.3433 C.2     1  UNL1        0.0000
      5 C          -1.9925    1.3414    1.8277 C.2     1  UNL1        0.0000
      6 C          -3.1451    1.5678    2.6223 C.2     1  UNL1        0.0000
      7 C          -2.8589    1.2740    5.9164 C.3     1  UNL1        0.0000
      8 C          -1.4699    1.2563    6.3050 C.2     1  UNL1        0.0000
      9 C          -1.0211   -0.0960    6.2338 C.2     1  UNL1        0.0000
     10 C          -2.0998   -0.9079    5.7951 C.2     1  UNL1        0.0000
     11 C          -3.2210   -0.0734    5.5620 C.2     1  UNL1        0.0000
     12 C          -0.6869    4.0665    4.0138 C.3     1  UNL1        0.0000
     13 H          -0.4772    4.7922    3.2252 H       1  UNL1        0.0000
     14 H           0.2642    3.7578    4.4445 H       1  UNL1        0.0000
     15 H          -1.2726    4.5622    4.7801 H       1  UNL1        0.0000
     16 C           0.3932    2.3342    1.6737 C.3     1  UNL1        0.0000
     17 H           0.2887    3.0540    0.8582 H       1  UNL1        0.0000
     18 H           0.7666    1.3982    1.2630 H       1  UNL1        0.0000
     19 H           1.1264    2.7141    2.3800 H       1  UNL1        0.0000
     20 C          -1.9154    0.5973    0.5289 C.3     1  UNL1        0.0000
     21 H          -2.0726    1.2949   -0.2977 H       1  UNL1        0.0000
     22 H          -2.6647   -0.1882    0.4669 H       1  UNL1        0.0000
     23 H          -0.9364    0.1358    0.4078 H       1  UNL1        0.0000
     24 C          -4.5316    1.1490    2.2378 C.3     1  UNL1        0.0000
     25 H          -5.1446    2.0314    2.0486 H       1  UNL1        0.0000
     26 H          -5.0186    0.5595    3.0100 H       1  UNL1        0.0000
     27 H          -4.5113    0.5552    1.3269 H       1  UNL1        0.0000
     28 C          -0.7049    2.3153    7.0350 C.3     1  UNL1        0.0000
     29 H          -0.6623    2.0772    8.1003 H       1  UNL1        0.0000
     30 H          -1.1653    3.2901    6.9249 H       1  UNL1        0.0000
     31 H           0.3167    2.3720    6.6636 H       1  UNL1        0.0000
     32 C           0.2694   -0.6150    6.7896 C.3     1  UNL1        0.0000
     33 H           0.1378   -0.8752    7.8427 H       1  UNL1        0.0000
     34 H           1.0526    0.1348    6.7150 H       1  UNL1        0.0000
     35 H           0.5929   -1.5035    6.2511 H       1  UNL1        0.0000
     36 C          -2.1125   -2.4053    5.8198 C.3     1  UNL1        0.0000
     37 H          -2.3384   -2.7476    6.8329 H       1  UNL1        0.0000
     38 H          -1.1451   -2.8109    5.5275 H       1  UNL1        0.0000
     39 H          -2.8675   -2.8044    5.1463 H       1  UNL1        0.0000
     40 C          -4.6066   -0.6135    5.3937 C.3     1  UNL1        0.0000
     41 H          -4.8954   -1.1611    6.2939 H       1  UNL1        0.0000
     42 H          -4.6627   -1.3099    4.5583 H       1  UNL1        0.0000
     43 H          -5.3293    0.1809    5.2434 H       1  UNL1        0.0000
     44 C          -3.5520    4.4581    6.1726 C.3     1  UNL1        0.0000
     45 H          -3.8633    5.2772    5.5317 H       1  UNL1        0.0000
     46 H          -2.5534    4.6806    6.5260 H       1  UNL1        0.0000
     47 H          -4.2074    4.4557    7.0376 H       1  UNL1        0.0000
     48 C          -5.6669    2.7296    5.1117 C.3     1  UNL1        0.0000
     49 H          -6.0402    3.7187    4.8666 H       1  UNL1        0.0000
     50 H          -6.0916    2.4542    6.0720 H       1  UNL1        0.0000
     51 H          -6.0519    2.0470    4.3660 H       1  UNL1        0.0000
@<TRIPOS>BOND
     1    21    20    1
     2    23    20    1
     3    22    20    1
     4    20     5    1
     5    17    16    1
     6    18    16    1
     7    27    24    1
     8    16     4    1
     9    16    19    1
    10     5     4    1
    11     5     6    2
    12    25    24    1
    13    24     6    1
    14    24    26    1
    15     4     3    2
    16     6     2    1
    17    13    12    1
    18     3     2    1
    19     3    12    1
    20     2     1    1
    21    12    14    1
    22    12    15    1
    23    51    48    1
    24    42    40    1
    25    49    48    1
    26    48     1    1
    27    48    50    1
    28    39    36    1
    29     1     7    1
    30     1    44    1
    31    43    40    1
    32    40    11    1
    33    40    41    1
    34    38    36    1
    35    45    44    1
    36    11    10    2
    37    11     7    1
    38    10    36    1
    39    10     9    1
    40    36    37    1
    41     7     8    1
    42    44    46    1
    43    44    47    1
    44     9     8    2
    45     9    32    1
    46    35    32    1
    47     8    28    1
    48    31    28    1
    49    34    32    1
    50    32    33    1
    51    30    28    1
    52    28    29    1
