@<TRIPOS>MOLECULE
8,11,12,20,22,25,28,29,37,39
 39 42 0 0 0
SMALL
GASTEIGER

@<TRIPOS>ATOM
      1 SI          2.9740    3.0364    6.0422 Si      1  UNL1        0.0000
      2 C           4.8455    3.0364    6.4058 C.3     1  UNL1        0.0000
      3 H           5.1235    3.9126    6.9815 H       1  UNL1        0.0000
      4 H           5.4382    3.0364    5.4967 H       1  UNL1        0.0000
      5 C           1.9677    3.0364    7.6609 C.3     1  UNL1        0.0000
      6 H           2.2013    3.9123    8.2565 H       1  UNL1        0.0000
      7 H           0.8982    3.0364    7.4780 H       1  UNL1        0.0000
      8 C           2.3978    0.5179    2.8479 C.ar    1  UNL1        0.0000
      9 C           2.6533   -0.2171    1.6744 C.ar    1  UNL1        0.0000
     10 H           3.6557   -0.2588    1.2674 H       1  UNL1        0.0000
     11 C           1.0631    0.5295    3.4061 C.ar    1  UNL1        0.0000
     12 C           1.1086    1.2920    4.6053 C.3     1  UNL1        0.0000
     13 H           0.2981    1.3866    5.3213 H       1  UNL1        0.0000
     14 C           1.6236   -0.8983    1.0766 C.ar    1  UNL1        0.0000
     15 H           1.8069   -1.4721    0.1797 H       1  UNL1        0.0000
     16 C           0.0381   -0.1956    2.7686 C.ar    1  UNL1        0.0000
     17 H          -0.9562   -0.2206    3.1962 H       1  UNL1        0.0000
     18 C           0.3259   -0.8879    1.6197 C.ar    1  UNL1        0.0000
     19 H          -0.4493   -1.4538    1.1239 H       1  UNL1        0.0000
     20 C           3.2310    1.2732    3.7177 C.3     1  UNL1        0.0000
     21 H           4.3110    1.3518    3.6426 H       1  UNL1        0.0000
     22 C           2.4540    1.6769    4.8323 C.3     1  UNL1        0.0000
     23 H           5.1235    2.1602    6.9815 H       1  UNL1        0.0000
     24 H           2.2013    2.1604    8.2565 H       1  UNL1        0.0000
     25 C           2.3978    5.5548    2.8479 C.ar    1  UNL1        0.0000
     26 C           2.6533    6.2898    1.6744 C.ar    1  UNL1        0.0000
     27 H           3.6557    6.3315    1.2674 H       1  UNL1        0.0000
     28 C           1.0631    5.5433    3.4061 C.ar    1  UNL1        0.0000
     29 C           1.1086    4.7807    4.6053 C.3     1  UNL1        0.0000
     30 H           0.2981    4.6861    5.3213 H       1  UNL1        0.0000
     31 C           1.6236    6.9711    1.0766 C.ar    1  UNL1        0.0000
     32 H           1.8069    7.5448    0.1797 H       1  UNL1        0.0000
     33 C           0.0381    6.2683    2.7686 C.ar    1  UNL1        0.0000
     34 H          -0.9562    6.2933    3.1962 H       1  UNL1        0.0000
     35 C           0.3260    6.9606    1.6198 C.ar    1  UNL1        0.0000
     36 H          -0.4493    7.5266    1.1239 H       1  UNL1        0.0000
     37 C           3.2310    4.7995    3.7177 C.3     1  UNL1        0.0000
     38 H           4.3110    4.7210    3.6426 H       1  UNL1        0.0000
     39 C           2.4540    4.3959    4.8323 C.3     1  UNL1        0.0000
@<TRIPOS>BOND
     1    15    14    1
     2    32    31    1
     3    14    18   ar
     4    14     9   ar
     5    31    35   ar
     6    31    26   ar
     7    19    18    1
     8    36    35    1
     9    10     9    1
    10    27    26    1
    11    18    16   ar
    12    35    33   ar
    13     9     8   ar
    14    26    25   ar
    15    16    17    1
    16    16    11   ar
    17    33    34    1
    18    33    28   ar
    19    25    28   ar
    20    25    37    1
    21     8    11   ar
    22     8    20    1
    23    11    12    1
    24    28    29    1
    25    21    20    1
    26    38    37    1
    27    20    22    1
    28    37    39    1
    29    12    22    1
    30    12    13    1
    31    29    39    1
    32    29    30    1
    33    22     1    1
    34    39     1    1
    35     4     2    1
    36     1     2    1
    37     1     5    1
    38     2    23    1
    39     2     3    1
    40     7     5    1
    41     5    24    1
    42     5     6    1
