@<TRIPOS>MOLECULE
3,4,5,7,16,17,19,20,21,30
 46 50 0 0 0
SMALL
GASTEIGER

@<TRIPOS>ATOM
      1 SI          0.2826    6.1231    4.0337 Si      1  UNL1        0.0000
      2 SI          0.9196    4.5347    7.0380 Si      1  UNL1        0.0000
      3 C          -0.0381    6.9798    5.6874 C.3     1  UNL1        0.0000
      4 C           0.2317    6.3089    6.9302 C.3     1  UNL1        0.0000
      5 C          -0.6116    6.8428    7.9302 C.3     1  UNL1        0.0000
      6 H          -0.5879    6.5988    8.9857 H       1  UNL1        0.0000
      7 C          -1.4114    7.8705    7.3488 C.ar    1  UNL1        0.0000
      8 C          -2.4206    8.6979    7.8761 C.ar    1  UNL1        0.0000
      9 H          -2.7009    8.6128    8.9184 H       1  UNL1        0.0000
     10 C          -3.0241    9.6114    7.0479 C.ar    1  UNL1        0.0000
     11 H          -3.8073   10.2495    7.4294 H       1  UNL1        0.0000
     12 C          -2.6272    9.7516    5.7069 C.ar    1  UNL1        0.0000
     13 H          -3.1094   10.5024    5.0988 H       1  UNL1        0.0000
     14 C          -1.6480    8.9604    5.1580 C.ar    1  UNL1        0.0000
     15 H          -1.3392    9.1023    4.1326 H       1  UNL1        0.0000
     16 C          -1.0397    7.9728    5.9544 C.ar    1  UNL1        0.0000
     17 C          -1.9440    4.2558    4.1706 C.3     1  UNL1        0.0000
     18 H          -2.4019    4.5495    3.2336 H       1  UNL1        0.0000
     19 C          -0.6199    4.5347    4.5775 C.3     1  UNL1        0.0000
     20 C          -0.3665    3.8666    5.8252 C.3     1  UNL1        0.0000
     21 C          -1.5544    3.1328    6.1584 C.ar    1  UNL1        0.0000
     22 C          -1.8781    2.2573    7.2112 C.ar    1  UNL1        0.0000
     23 H          -1.1356    1.9911    7.9492 H       1  UNL1        0.0000
     24 C          -3.1460    1.7338    7.2787 C.ar    1  UNL1        0.0000
     25 H          -3.4076    1.0722    8.0913 H       1  UNL1        0.0000
     26 C          -4.1220    2.0360    6.3134 C.ar    1  UNL1        0.0000
     27 H          -5.1087    1.6096    6.4179 H       1  UNL1        0.0000
     28 C          -3.8342    2.8415    5.2396 C.ar    1  UNL1        0.0000
     29 H          -4.5738    3.0471    4.4761 H       1  UNL1        0.0000
     30 C          -2.5441    3.3950    5.1363 C.ar    1  UNL1        0.0000
     31 C          -0.7689    6.8577    2.6194 C.3     1  UNL1        0.0000
     32 H          -0.3665    7.8067    2.2816 H       1  UNL1        0.0000
     33 H          -1.8000    7.0146    2.9322 H       1  UNL1        0.0000
     34 H          -0.7734    6.1929    1.7609 H       1  UNL1        0.0000
     35 C           2.1100    5.9809    3.5050 C.3     1  UNL1        0.0000
     36 H           2.3220    5.0108    3.0694 H       1  UNL1        0.0000
     37 H           2.7884    6.1361    4.3348 H       1  UNL1        0.0000
     38 H           2.3330    6.7310    2.7545 H       1  UNL1        0.0000
     39 C           0.5979    3.9605    8.8302 C.3     1  UNL1        0.0000
     40 H           0.8974    2.9278    8.9728 H       1  UNL1        0.0000
     41 H          -0.4549    4.0511    9.0930 H       1  UNL1        0.0000
     42 H           1.1743    4.5565    9.5315 H       1  UNL1        0.0000
     43 C           2.7452    4.2547    6.5629 C.3     1  UNL1        0.0000
     44 H           2.8684    4.0655    5.5038 H       1  UNL1        0.0000
     45 H           3.1352    3.3957    7.0976 H       1  UNL1        0.0000
     46 H           3.3570    5.1099    6.8284 H       1  UNL1        0.0000
@<TRIPOS>BOND
     1    34    31    1
     2    32    31    1
     3    31    33    1
     4    31     1    1
     5    38    35    1
     6    36    35    1
     7    18    17    1
     8    35     1    1
     9    35    37    1
    10     1    19    1
    11     1     3    1
    12    15    14    1
    13    17    19    1
    14    17    30    1
    15    29    28    1
    16    19    20    1
    17    13    12    1
    18    30    28   ar
    19    30    21   ar
    20    14    12   ar
    21    14    16   ar
    22    28    26   ar
    23    44    43    1
    24     3    16    1
    25     3     4    1
    26    12    10   ar
    27    20    21    1
    28    20     2    1
    29    16     7   ar
    30    21    22   ar
    31    26    27    1
    32    26    24   ar
    33    43    46    1
    34    43     2    1
    35    43    45    1
    36     4     2    1
    37     4     5    1
    38     2    39    1
    39    10    11    1
    40    10     8   ar
    41    22    24   ar
    42    22    23    1
    43    24    25    1
    44     7     8   ar
    45     7     5    1
    46     8     9    1
    47     5     6    1
    48    39    40    1
    49    39    41    1
    50    39    42    1
