@<TRIPOS>MOLECULE
2,3,4,5,6,12,13,14,15,16
 48 49 0 0 0
SMALL
GASTEIGER

@<TRIPOS>ATOM
      1 SI          5.5684    5.8494    3.6118 Si      1  UNL1        0.0000
      2 C           4.1186    6.1186    4.7965 C.3     1  UNL1        0.0000
      3 C           3.2446    5.0906    5.2537 C.3     1  UNL1        0.0000
      4 C           2.0272    5.6773    5.6787 C.2     1  UNL1        0.0000
      5 C           2.1290    7.0722    5.4539 C.2     1  UNL1        0.0000
      6 C           3.3920    7.3374    4.8881 C.3     1  UNL1        0.0000
      7 C           0.8829    4.9649    6.3546 C.3     1  UNL1        0.0000
      8 C           0.9892    5.1460    7.8739 C.3     1  UNL1        0.0000
      9 C          -0.4666    5.4796    5.8457 C.3     1  UNL1        0.0000
     10 C           6.4610    4.2084    3.9998 C.3     1  UNL1        0.0000
     11 C           6.8924    7.2279    3.6676 C.3     1  UNL1        0.0000
     12 C           4.4407    5.8835    2.0845 C.3     1  UNL1        0.0000
     13 C           3.7115    4.7571    1.5852 C.3     1  UNL1        0.0000
     14 C           2.6209    5.2279    0.8103 C.2     1  UNL1        0.0000
     15 C           2.6515    6.6498    0.8299 C.2     1  UNL1        0.0000
     16 C           3.7419    7.0547    1.6385 C.3     1  UNL1        0.0000
     17 C           4.0922    3.3126    1.7604 C.3     1  UNL1        0.0000
     18 C           1.6280    4.4093    0.0343 C.3     1  UNL1        0.0000
     19 C           1.7822    7.5540    0.0051 C.3     1  UNL1        0.0000
     20 C           4.1333    8.4955    1.8247 C.3     1  UNL1        0.0000
     21 H           3.5091    4.0454    5.3821 H       1  UNL1        0.0000
     22 H           1.4042    7.8204    5.7499 H       1  UNL1        0.0000
     23 H           3.7980    8.3265    4.7143 H       1  UNL1        0.0000
     24 H           0.9559    3.8935    6.1253 H       1  UNL1        0.0000
     25 H           0.1867    4.6114    8.3766 H       1  UNL1        0.0000
     26 H           0.9198    6.2002    8.1329 H       1  UNL1        0.0000
     27 H           1.9415    4.7657    8.2363 H       1  UNL1        0.0000
     28 H          -1.2765    4.8984    6.2818 H       1  UNL1        0.0000
     29 H          -0.5270    5.3916    4.7586 H       1  UNL1        0.0000
     30 H          -0.6119    6.5232    6.1194 H       1  UNL1        0.0000
     31 H           7.1504    3.9394    3.2070 H       1  UNL1        0.0000
     32 H           5.7788    3.3799    4.1509 H       1  UNL1        0.0000
     33 H           7.0428    4.3231    4.9086 H       1  UNL1        0.0000
     34 H           6.5309    8.1329    4.1437 H       1  UNL1        0.0000
     35 H           7.2436    7.4861    2.6745 H       1  UNL1        0.0000
     36 H           7.7503    6.8886    4.2368 H       1  UNL1        0.0000
     37 H           5.1722    3.2131    1.8358 H       1  UNL1        0.0000
     38 H           3.7593    2.7291    0.9031 H       1  UNL1        0.0000
     39 H           3.6319    2.8809    2.6556 H       1  UNL1        0.0000
     40 H           1.6699    3.3621    0.3269 H       1  UNL1        0.0000
     41 H           1.8247    4.4817   -1.0378 H       1  UNL1        0.0000
     42 H           0.6123    4.7697    0.2180 H       1  UNL1        0.0000
     43 H           1.6621    8.5264    0.4813 H       1  UNL1        0.0000
     44 H           0.7933    7.1198   -0.1379 H       1  UNL1        0.0000
     45 H           2.2309    7.7077   -0.9796 H       1  UNL1        0.0000
     46 H           4.3860    8.9424    0.8608 H       1  UNL1        0.0000
     47 H           4.9979    8.5910    2.4742 H       1  UNL1        0.0000
     48 H           3.3025    9.0714    2.2465 H       1  UNL1        0.0000
@<TRIPOS>BOND
     1    41    18    1
     2    45    19    1
     3    44    19    1
     4    19    43    1
     5    19    15    1
     6    18    42    1
     7    18    40    1
     8    18    14    1
     9    14    15    2
    10    14    13    1
    11    15    16    1
    12    46    20    1
    13    38    17    1
    14    13    17    1
    15    13    12    1
    16    16    20    1
    17    16    12    1
    18    17    37    1
    19    17    39    1
    20    20    48    1
    21    20    47    1
    22    12     1    1
    23    35    11    1
    24    31    10    1
    25     1    11    1
    26     1    10    1
    27     1     2    1
    28    11    34    1
    29    11    36    1
    30    10    32    1
    31    10    33    1
    32    23     6    1
    33    29     9    1
    34     2     6    1
    35     2     3    1
    36     6     5    1
    37     3    21    1
    38     3     4    1
    39     5     4    2
    40     5    22    1
    41     4     7    1
    42     9    30    1
    43     9    28    1
    44     9     7    1
    45    24     7    1
    46     7     8    1
    47     8    26    1
    48     8    27    1
    49     8    25    1
