@<TRIPOS>MOLECULE
10,11,13,14,16,22,23,24,25,26
 42 43 0 0 0
SMALL
GASTEIGER

@<TRIPOS>ATOM
      1 SI         -1.6358    1.7180    5.8835 Si      1  UNL1        0.0000
      2 C          -3.5311    1.9466    5.7480 C.3     1  UNL1        0.0000
      3 H          -3.8129    2.9922    5.8140 H       1  UNL1        0.0000
      4 H          -4.0740    1.4010    6.5124 H       1  UNL1        0.0000
      5 H          -3.8745    1.5777    4.7877 H       1  UNL1        0.0000
      6 C          -0.9880    1.6804    4.0878 C.3     1  UNL1        0.0000
      7 H          -1.0599    2.6589    3.6257 H       1  UNL1        0.0000
      8 H          -1.5949    0.9991    3.5009 H       1  UNL1        0.0000
      9 H           0.0398    1.3470    4.0118 H       1  UNL1        0.0000
     10 C          -1.1080    0.1844    6.8480 C.2     1  UNL1        0.0000
     11 C          -1.6619   -0.2145    8.0975 C.3     1  UNL1        0.0000
     12 H          -2.6652    0.0122    8.4439 H       1  UNL1        0.0000
     13 C          -0.7772   -1.1175    8.7221 C.2     1  UNL1        0.0000
     14 C           0.3602   -1.2417    7.8945 C.2     1  UNL1        0.0000
     15 H           1.1471   -1.9705    8.0307 H       1  UNL1        0.0000
     16 C           0.1773   -0.4165    6.7610 C.2     1  UNL1        0.0000
     17 H           0.8205   -0.4036    5.8878 H       1  UNL1        0.0000
     18 C          -1.0370   -1.9090    9.9701 C.3     1  UNL1        0.0000
     19 H          -0.0975   -2.1838   10.4485 H       1  UNL1        0.0000
     20 H          -1.5780   -2.8270    9.7288 H       1  UNL1        0.0000
     21 H          -1.6362   -1.3381   10.6787 H       1  UNL1        0.0000
     22 C          -0.7360    2.8850    7.0750 C.3     1  UNL1        0.0000
     23 C          -1.1759    3.1817    8.4067 C.3     1  UNL1        0.0000
     24 C          -0.0899    3.7335    9.1242 C.2     1  UNL1        0.0000
     25 C           1.0456    3.7422    8.2719 C.2     1  UNL1        0.0000
     26 C           0.6585    3.1925    7.0252 C.3     1  UNL1        0.0000
     27 C          -2.5687    3.0478    8.9628 C.3     1  UNL1        0.0000
     28 H          -2.5715    2.4052    9.8508 H       1  UNL1        0.0000
     29 H          -3.2497    2.6353    8.2242 H       1  UNL1        0.0000
     30 H          -2.9520    4.0256    9.2625 H       1  UNL1        0.0000
     31 C          -0.1361    4.3378   10.4979 C.3     1  UNL1        0.0000
     32 H           0.7054    3.9980   11.1044 H       1  UNL1        0.0000
     33 H          -1.0537    4.0631   11.0128 H       1  UNL1        0.0000
     34 H          -0.0876    5.4273   10.4342 H       1  UNL1        0.0000
     35 C           2.3385    4.4332    8.6058 C.3     1  UNL1        0.0000
     36 H           3.1629    4.0814    7.9886 H       1  UNL1        0.0000
     37 H           2.6026    4.2827    9.6522 H       1  UNL1        0.0000
     38 H           2.2342    5.5089    8.4448 H       1  UNL1        0.0000
     39 C           1.5438    3.0690    5.8142 C.3     1  UNL1        0.0000
     40 H           2.4391    3.6768    5.9321 H       1  UNL1        0.0000
     41 H           1.0216    3.4166    4.9252 H       1  UNL1        0.0000
     42 H           1.8563    2.0324    5.6434 H       1  UNL1        0.0000
@<TRIPOS>BOND
     1     8     6    1
     2     7     6    1
     3     9     6    1
     4     6     1    1
     5     5     2    1
     6    41    39    1
     7    42    39    1
     8     2     3    1
     9     2     1    1
    10     2     4    1
    11    39    40    1
    12    39    26    1
    13     1    10    1
    14     1    22    1
    15    17    16    1
    16    16    10    2
    17    16    14    1
    18    10    11    1
    19    26    22    1
    20    26    25    1
    21    22    23    1
    22    14    15    1
    23    14    13    2
    24    36    35    1
    25    11    12    1
    26    11    13    1
    27    29    27    1
    28    25    35    1
    29    25    24    2
    30    23    27    1
    31    23    24    1
    32    38    35    1
    33    35    37    1
    34    13    18    1
    35    27    30    1
    36    27    28    1
    37    24    31    1
    38    20    18    1
    39    18    19    1
    40    18    21    1
    41    34    31    1
    42    31    33    1
    43    31    32    1
