@<TRIPOS>MOLECULE
2,4,6,8,19,20,22,24,25
 68 72 0 0 0
SMALL
GASTEIGER

@<TRIPOS>ATOM
      1 C          -0.2897   -3.5917   14.8128 C.3     1  UNL1        0.0000
      2 C          -1.5641   -4.1119   14.4362 C.3     1  UNL1        0.0000
      3 H          -2.4680   -3.5271   14.3023 H       1  UNL1        0.0000
      4 C          -1.5089   -5.5207   14.4836 C.2     1  UNL1        0.0000
      5 H          -2.3477   -6.1962   14.3615 H       1  UNL1        0.0000
      6 C          -0.1956   -5.8932   14.8473 C.2     1  UNL1        0.0000
      7 H           0.1485   -6.9037   15.0366 H       1  UNL1        0.0000
      8 C           0.5543   -4.7124   15.0386 C.3     1  UNL1        0.0000
      9 H           1.5745   -4.6709   15.4035 H       1  UNL1        0.0000
     10 SI          0.3181   -1.8555   14.3485 Si      1  UNL1        0.0000
     11 C          -0.8548   -0.4617   14.9040 C.3     1  UNL1        0.0000
     12 H          -0.8645   -0.3785   15.9851 H       1  UNL1        0.0000
     13 H          -1.8751   -0.6312   14.5768 H       1  UNL1        0.0000
     14 H          -0.5328    0.4926   14.5021 H       1  UNL1        0.0000
     15 C           2.1162   -1.5933   14.9167 C.3     1  UNL1        0.0000
     16 H           2.5158   -0.6639   14.5259 H       1  UNL1        0.0000
     17 H           2.7610   -2.4017   14.5819 H       1  UNL1        0.0000
     18 H           2.1768   -1.5448   15.9984 H       1  UNL1        0.0000
     19 C           0.2416   -2.2110   12.4869 C.3     1  UNL1        0.0000
     20 C          -0.9732   -2.5251   11.8149 C.2     1  UNL1        0.0000
     21 H          -1.9510   -2.1326   12.0710 H       1  UNL1        0.0000
     22 C          -0.6730   -3.2712   10.6570 C.2     1  UNL1        0.0000
     23 H          -1.3789   -3.5797    9.8940 H       1  UNL1        0.0000
     24 C           0.7315   -3.4701   10.6084 C.3     1  UNL1        0.0000
     25 C           1.2898   -2.8193   11.7375 C.3     1  UNL1        0.0000
     26 H           2.3520   -2.7214   11.9390 H       1  UNL1        0.0000
     27 C           1.4909   -4.1696    9.5153 C.3     1  UNL1        0.0000
     28 H           0.8375   -4.8990    9.0245 H       1  UNL1        0.0000
     29 H           2.3432   -4.7064    9.9456 H       1  UNL1        0.0000
     30 C           2.0127   -3.1722    8.4681 C.3     1  UNL1        0.0000
     31 H           2.6813   -2.4660    8.9634 H       1  UNL1        0.0000
     32 H           2.5944   -3.7180    7.7260 H       1  UNL1        0.0000
     33 C           0.8671   -2.4152    7.7939 C.3     1  UNL1        0.0000
     34 H           0.3781   -1.8212    8.5702 H       1  UNL1        0.0000
     35 H           0.1426   -3.1546    7.4520 H       1  UNL1        0.0000
     36 B           1.3012   -1.4240    6.5681 B       1  UNL1        0.0000
     37 N           0.0135   -0.7665    5.9715 N.pl3   1  UNL1        0.0000
     38 C          -1.1985   -0.8584    6.4069 C.2     1  UNL1        0.0000
     39 H          -1.4549   -1.4441    7.2697 H       1  UNL1        0.0000
     40 C          -2.1092   -0.0892    5.6153 C.2     1  UNL1        0.0000
     41 H          -3.1641   -0.0172    5.7938 H       1  UNL1        0.0000
     42 C          -1.3851    0.5025    4.6467 C.3     1  UNL1        0.0000
     43 H          -1.7231    1.1567    3.8665 H       1  UNL1        0.0000
     44 C           0.0284    0.0962    4.8220 C.3     1  UNL1        0.0000
     45 H           0.4234   -0.4277    3.9478 H       1  UNL1        0.0000
     46 H           0.6933    0.9467    4.9970 H       1  UNL1        0.0000
     47 C           2.0541   -2.1356    5.2918 C.ar    1  UNL1        0.0000
     48 C           2.8906   -1.4070    4.4489 C.ar    1  UNL1        0.0000
     49 F           3.0075   -0.0715    4.6176 F       1  UNL1        0.0000
     50 C           3.6073   -1.9634    3.3974 C.ar    1  UNL1        0.0000
     51 F           4.3845   -1.1921    2.6292 F       1  UNL1        0.0000
     52 C           3.4947   -3.3238    3.1376 C.ar    1  UNL1        0.0000
     53 F           4.1708   -3.8823    2.1322 F       1  UNL1        0.0000
     54 C           2.6415   -4.0830    3.9268 C.ar    1  UNL1        0.0000
     55 F           2.4815   -5.3859    3.6743 F       1  UNL1        0.0000
     56 C           1.9396   -3.4843    4.9708 C.ar    1  UNL1        0.0000
     57 F           1.0980   -4.2751    5.6487 F       1  UNL1        0.0000
     58 C           2.2512   -0.2673    7.2205 C.ar    1  UNL1        0.0000
     59 C           3.6135   -0.4833    7.4229 C.ar    1  UNL1        0.0000
     60 F           4.1912   -1.6036    6.9592 F       1  UNL1        0.0000
     61 C           4.4409    0.4184    8.0819 C.ar    1  UNL1        0.0000
     62 F           5.7413    0.1502    8.2364 F       1  UNL1        0.0000
     63 C           3.9131    1.6013    8.5856 C.ar    1  UNL1        0.0000
     64 F           4.6921    2.4790    9.2235 F       1  UNL1        0.0000
     65 C           2.5588    1.8519    8.4140 C.ar    1  UNL1        0.0000
     66 F           2.0165    2.9819    8.8860 F       1  UNL1        0.0000
     67 C           1.7664    0.9234    7.7492 C.ar    1  UNL1        0.0000
     68 F           0.4564    1.2332    7.6200 F       1  UNL1        0.0000
@<TRIPOS>BOND
     1    53    52    1
     2    51    50    1
     3    52    50   ar
     4    52    54   ar
     5    50    48   ar
     6    55    54    1
     7    43    42    1
     8    54    56   ar
     9    45    44    1
    10    48    49    1
    11    48    47   ar
    12    42    44    1
    13    42    40    1
    14    44    46    1
    15    44    37    1
    16    56    47   ar
    17    56    57    1
    18    47    36    1
    19    40    41    1
    20    40    38    2
    21    37    38    1
    22    37    36    1
    23    38    39    1
    24    36    58    1
    25    36    33    1
    26    60    59    1
    27    58    59   ar
    28    58    67   ar
    29    59    61   ar
    30    35    33    1
    31    68    67    1
    32    32    30    1
    33    67    65   ar
    34    33    30    1
    35    33    34    1
    36    61    62    1
    37    61    63   ar
    38    65    63   ar
    39    65    66    1
    40    30    31    1
    41    30    27    1
    42    63    64    1
    43    28    27    1
    44    27    29    1
    45    27    24    1
    46    23    22    1
    47    24    22    1
    48    24    25    1
    49    22    20    2
    50    25    26    1
    51    25    19    1
    52    20    21    1
    53    20    19    1
    54    19    10    1
    55     3     2    1
    56    10     1    1
    57    10    11    1
    58    10    15    1
    59     5     4    1
    60     2     4    1
    61     2     1    1
    62     4     6    2
    63    14    11    1
    64    16    15    1
    65    13    11    1
    66    17    15    1
    67     1     8    1
    68     6     7    1
    69     6     8    1
    70    11    12    1
    71    15    18    1
    72     8     9    1
