@<TRIPOS>MOLECULE
2,3,5,7,9,19,20,22,24,25
 58 61 0 0 0
SMALL
GASTEIGER

@<TRIPOS>ATOM
      1 SI          4.6377    8.8157    6.7356 Si      1  UNL1        0.0000
      2 C           6.1766    8.5009    5.6715 C.3     1  UNL1        0.0000
      3 C           7.4317    8.0792    6.2035 C.2     1  UNL1        0.0000
      4 H           7.8175    8.3360    7.1844 H       1  UNL1        0.0000
      5 C           8.1748    7.4635    5.1746 C.2     1  UNL1        0.0000
      6 H           9.2082    7.1425    5.2386 H       1  UNL1        0.0000
      7 C           7.3799    7.4579    4.0066 C.2     1  UNL1        0.0000
      8 H           7.6935    7.1173    3.0262 H       1  UNL1        0.0000
      9 C           6.1520    8.0835    4.3133 C.2     1  UNL1        0.0000
     10 H           5.3655    8.3039    3.5998 H       1  UNL1        0.0000
     11 C           4.9172   10.0866    8.1256 C.3     1  UNL1        0.0000
     12 H           5.0745   11.0773    7.7136 H       1  UNL1        0.0000
     13 H           5.7809    9.8410    8.7342 H       1  UNL1        0.0000
     14 H           4.0542   10.1338    8.7806 H       1  UNL1        0.0000
     15 C           3.1308    9.2205    5.6432 C.3     1  UNL1        0.0000
     16 H           2.2213    9.2513    6.2331 H       1  UNL1        0.0000
     17 H           2.9972    8.4776    4.8611 H       1  UNL1        0.0000
     18 H           3.2446   10.1886    5.1680 H       1  UNL1        0.0000
     19 C           4.5601    7.0232    7.3469 C.3     1  UNL1        0.0000
     20 C           5.5972    6.4284    8.1191 C.2     1  UNL1        0.0000
     21 H           6.2175    6.9473    8.8413 H       1  UNL1        0.0000
     22 C           5.5578    5.0313    7.9367 C.2     1  UNL1        0.0000
     23 H           6.1510    4.2984    8.4721 H       1  UNL1        0.0000
     24 C           4.5212    4.7348    7.0140 C.3     1  UNL1        0.0000
     25 C           3.9108    5.9620    6.6518 C.3     1  UNL1        0.0000
     26 H           3.0309    6.0606    6.0238 H       1  UNL1        0.0000
     27 C           4.1076    3.3611    6.5660 C.3     1  UNL1        0.0000
     28 H           4.9850    2.7034    6.5502 H       1  UNL1        0.0000
     29 H           3.6990    3.4115    5.5504 H       1  UNL1        0.0000
     30 C           3.0445    2.7727    7.5054 C.3     1  UNL1        0.0000
     31 H           3.4491    2.7288    8.5184 H       1  UNL1        0.0000
     32 H           2.1818    3.4413    7.5210 H       1  UNL1        0.0000
     33 C           2.6058    1.3752    7.0651 C.3     1  UNL1        0.0000
     34 H           3.4880    0.7281    7.0219 H       1  UNL1        0.0000
     35 H           2.2556    1.4311    6.0286 H       1  UNL1        0.0000
     36 B           1.4910    0.6699    7.9238 B       1  UNL1        0.0000
     37 C           0.7194    1.2685    9.1616 C.3     1  UNL1        0.0000
     38 H           1.0138    2.2878    9.4348 H       1  UNL1        0.0000
     39 C           1.0295    0.3878   10.3903 C.3     1  UNL1        0.0000
     40 H           2.0854    0.5383   10.6327 H       1  UNL1        0.0000
     41 H           0.4455    0.7354   11.2473 H       1  UNL1        0.0000
     42 C           0.7818   -1.1097   10.1988 C.3     1  UNL1        0.0000
     43 H          -0.2793   -1.3247   10.3053 H       1  UNL1        0.0000
     44 H           1.2850   -1.6464   11.0093 H       1  UNL1        0.0000
     45 C           1.2918   -1.6651    8.8677 C.3     1  UNL1        0.0000
     46 H           2.3798   -1.7619    8.9237 H       1  UNL1        0.0000
     47 H           0.8821   -2.6688    8.7234 H       1  UNL1        0.0000
     48 C           0.9783   -0.7941    7.6332 C.3     1  UNL1        0.0000
     49 H           1.4677   -1.2808    6.7809 H       1  UNL1        0.0000
     50 C          -0.5236   -0.7238    7.2877 C.3     1  UNL1        0.0000
     51 H          -0.6063   -0.2191    6.3209 H       1  UNL1        0.0000
     52 H          -0.9198   -1.7355    7.1621 H       1  UNL1        0.0000
     53 C          -1.3896    0.0233    8.3040 C.3     1  UNL1        0.0000
     54 H          -2.3514    0.2502    7.8332 H       1  UNL1        0.0000
     55 H          -1.6108   -0.6262    9.1483 H       1  UNL1        0.0000
     56 C          -0.7805    1.3343    8.8046 C.3     1  UNL1        0.0000
     57 H          -1.3494    1.6784    9.6731 H       1  UNL1        0.0000
     58 H          -0.8900    2.0909    8.0224 H       1  UNL1        0.0000
@<TRIPOS>BOND
     1     8     7    1
     2    10     9    1
     3     7     9    2
     4     7     5    1
     5     9     2    1
     6    17    15    1
     7    18    15    1
     8     5     6    1
     9     5     3    2
    10    29    27    1
    11    15    16    1
    12    15     1    1
    13     2     3    1
    14     2     1    1
    15    26    25    1
    16    35    33    1
    17     3     4    1
    18    51    50    1
    19    28    27    1
    20    27    24    1
    21    27    30    1
    22    25    24    1
    23    25    19    1
    24     1    19    1
    25     1    11    1
    26    49    48    1
    27    24    22    1
    28    34    33    1
    29    33    30    1
    30    33    36    1
    31    52    50    1
    32    50    48    1
    33    50    53    1
    34    19    20    1
    35    30    32    1
    36    30    31    1
    37    48    36    1
    38    48    45    1
    39    12    11    1
    40    54    53    1
    41    36    37    1
    42    22    20    2
    43    22    23    1
    44    58    56    1
    45    20    21    1
    46    11    13    1
    47    11    14    1
    48    53    56    1
    49    53    55    1
    50    47    45    1
    51    56    37    1
    52    56    57    1
    53    45    46    1
    54    45    42    1
    55    37    38    1
    56    37    39    1
    57    42    43    1
    58    42    39    1
    59    42    44    1
    60    39    40    1
    61    39    41    1
