@<TRIPOS>MOLECULE
2,3,4,6,7,34,35,36,38,39
 73 80 0 0 0
SMALL
GASTEIGER

@<TRIPOS>ATOM
      1 SI          3.3967    0.5456    6.3010 Si      1  UNL1        0.0000
      2 C           4.1192   -0.3392    4.7787 C.3     1  UNL1        0.0000
      3 C           3.6709   -0.1203    3.4298 C.3     1  UNL1        0.0000
      4 C           4.6857   -0.4914    2.5015 C.3     1  UNL1        0.0000
      5 H           4.5746   -0.5115    1.4243 H       1  UNL1        0.0000
      6 C           5.7823   -0.9314    3.2637 C.ar    1  UNL1        0.0000
      7 C           5.4728   -0.8220    4.6533 C.ar    1  UNL1        0.0000
      8 C           6.6071   -1.3740    5.3475 C.ar    1  UNL1        0.0000
      9 C           6.8872   -1.6807    6.6769 C.ar    1  UNL1        0.0000
     10 H           6.1546   -1.4976    7.4461 H       1  UNL1        0.0000
     11 C           8.1009   -2.2576    6.9961 C.ar    1  UNL1        0.0000
     12 H           8.3240   -2.4917    8.0263 H       1  UNL1        0.0000
     13 C           9.0333   -2.5605    6.0091 C.ar    1  UNL1        0.0000
     14 H           9.9699   -3.0205    6.2860 H       1  UNL1        0.0000
     15 C           8.7694   -2.3075    4.6763 C.ar    1  UNL1        0.0000
     16 H           9.4770   -2.5879    3.9115 H       1  UNL1        0.0000
     17 C           7.5629   -1.7106    4.3447 C.ar    1  UNL1        0.0000
     18 N           7.0485   -1.4510    3.0864 N.ar    1  UNL1        0.0000
     19 C           7.7147   -1.5530    1.8575 C.ar    1  UNL1        0.0000
     20 C           7.0536   -2.1039    0.7632 C.ar    1  UNL1        0.0000
     21 H           6.0441   -2.4691    0.8800 H       1  UNL1        0.0000
     22 C           7.6976   -2.1980   -0.4562 C.ar    1  UNL1        0.0000
     23 H           7.1811   -2.6279   -1.3018 H       1  UNL1        0.0000
     24 C           9.0008   -1.7498   -0.5932 C.ar    1  UNL1        0.0000
     25 H           9.5020   -1.8270   -1.5463 H       1  UNL1        0.0000
     26 C           9.6559   -1.1949    0.4939 C.ar    1  UNL1        0.0000
     27 H          10.6666   -0.8302    0.3866 H       1  UNL1        0.0000
     28 C           9.0192   -1.0893    1.7163 C.ar    1  UNL1        0.0000
     29 H           9.5107   -0.6213    2.5548 H       1  UNL1        0.0000
     30 C           2.3093    0.3335    2.9794 C.3     1  UNL1        0.0000
     31 H           2.2843    0.3804    1.8905 H       1  UNL1        0.0000
     32 H           2.0596    1.3261    3.3600 H       1  UNL1        0.0000
     33 H           1.5411   -0.3692    3.3058 H       1  UNL1        0.0000
     34 C           4.2062    2.2190    5.8924 C.3     1  UNL1        0.0000
     35 C           5.6107    2.4926    6.0364 C.3     1  UNL1        0.0000
     36 C           5.9935    3.5830    5.2033 C.3     1  UNL1        0.0000
     37 H           6.9710    4.0491    5.1886 H       1  UNL1        0.0000
     38 C           4.8336    3.9899    4.5206 C.ar    1  UNL1        0.0000
     39 C           3.7380    3.1573    4.9017 C.ar    1  UNL1        0.0000
     40 C           2.5863    3.7011    4.2302 C.ar    1  UNL1        0.0000
     41 C           1.2173    3.4482    4.2737 C.ar    1  UNL1        0.0000
     42 H           0.8230    2.6846    4.9245 H       1  UNL1        0.0000
     43 C           0.3640    4.2119    3.5016 C.ar    1  UNL1        0.0000
     44 H          -0.6973    4.0152    3.5285 H       1  UNL1        0.0000
     45 C           0.8476    5.2444    2.7045 C.ar    1  UNL1        0.0000
     46 H           0.1568    5.8321    2.1191 H       1  UNL1        0.0000
     47 C           2.1954    5.5483    2.6705 C.ar    1  UNL1        0.0000
     48 H           2.5582    6.3802    2.0870 H       1  UNL1        0.0000
     49 C           3.0647    4.7764    3.4258 C.ar    1  UNL1        0.0000
     50 N           4.4239    4.9510    3.6188 N.ar    1  UNL1        0.0000
     51 C           5.2727    5.8341    2.9374 C.ar    1  UNL1        0.0000
     52 C           6.2382    6.5422    3.6475 C.ar    1  UNL1        0.0000
     53 H           6.3066    6.4213    4.7184 H       1  UNL1        0.0000
     54 C           7.0871    7.4073    2.9830 C.ar    1  UNL1        0.0000
     55 C           6.9784    7.5761    1.6127 C.ar    1  UNL1        0.0000
     56 C           6.0226    6.8656    0.9053 C.ar    1  UNL1        0.0000
     57 C           5.1730    5.9924    1.5584 C.ar    1  UNL1        0.0000
     58 C           6.5795    1.8367    6.9819 C.3     1  UNL1        0.0000
     59 C           3.8870   -0.1479    8.0117 C.3     1  UNL1        0.0000
     60 C           1.4887    0.5078    6.3768 C.3     1  UNL1        0.0000
     61 H           7.8335    7.9558    3.5385 H       1  UNL1        0.0000
     62 H           4.4542    5.4071    1.0067 H       1  UNL1        0.0000
     63 H           6.6781    0.7657    6.7926 H       1  UNL1        0.0000
     64 H           6.2662    1.9812    8.0169 H       1  UNL1        0.0000
     65 H           7.5653    2.2864    6.8609 H       1  UNL1        0.0000
     66 H           3.7538   -1.2245    8.0321 H       1  UNL1        0.0000
     67 H           3.2298    0.2725    8.7660 H       1  UNL1        0.0000
     68 H           4.9031    0.0742    8.3087 H       1  UNL1        0.0000
     69 H           1.1712   -0.4175    6.8465 H       1  UNL1        0.0000
     70 H           1.0025    0.5637    5.4123 H       1  UNL1        0.0000
     71 H           1.1217    1.3235    6.9910 H       1  UNL1        0.0000
     72 H           7.6411    8.2546    1.0970 H       1  UNL1        0.0000
     73 H           5.9453    6.9831   -0.1655 H       1  UNL1        0.0000
@<TRIPOS>BOND
     1    25    24    1
     2    23    22    1
     3    24    22   ar
     4    24    26   ar
     5    22    20   ar
     6    73    56    1
     7    27    26    1
     8    26    28   ar
     9    20    21    1
    10    20    19   ar
    11    56    57   ar
    12    56    55   ar
    13    62    57    1
    14    72    55    1
    15     5     4    1
    16    57    51   ar
    17    55    54   ar
    18    28    19   ar
    19    28    29    1
    20    19    18    1
    21    31    30    1
    22    48    47    1
    23    46    45    1
    24     4     6    1
    25     4     3    1
    26    47    45   ar
    27    47    49   ar
    28    45    43   ar
    29    51    50    1
    30    51    52   ar
    31    30    33    1
    32    30    32    1
    33    30     3    1
    34    54    61    1
    35    54    52   ar
    36    18     6   ar
    37    18    17   ar
    38     6     7   ar
    39    49    50   ar
    40    49    40   ar
    41     3     2    1
    42    43    44    1
    43    43    41   ar
    44    50    38   ar
    45    52    53    1
    46    16    15    1
    47    40    41   ar
    48    40    39   ar
    49    41    42    1
    50    17    15   ar
    51    17     8   ar
    52    38    39   ar
    53    38    36    1
    54     7     2    1
    55     7     8   ar
    56    15    13   ar
    57     2     1    1
    58    39    34    1
    59    37    36    1
    60    36    35    1
    61     8     9   ar
    62    70    60    1
    63    34    35    1
    64    34     1    1
    65    13    14    1
    66    13    11   ar
    67    35    58    1
    68     1    60    1
    69     1    59    1
    70    60    69    1
    71    60    71    1
    72     9    11   ar
    73     9    10    1
    74    63    58    1
    75    65    58    1
    76    58    64    1
    77    11    12    1
    78    59    66    1
    79    59    68    1
    80    59    67    1
