@<TRIPOS>MOLECULE
3,4,5,6,7,24,25,26,27,28
 66 67 0 0 0
SMALL
GASTEIGER

@<TRIPOS>ATOM
      1 SI         -1.6357  -10.8704    2.9172 Si      1  UNL1        0.0000
      2 SI         -4.0518  -10.9331    5.9954 Si      1  UNL1        0.0000
      3 C          -3.7990   -8.8393    2.5458 C.3     1  UNL1        0.0000
      4 C          -3.9006   -7.5186    2.0586 C.3     1  UNL1        0.0000
      5 C          -2.5808   -7.0415    1.8068 C.2     1  UNL1        0.0000
      6 C          -1.6699   -8.0479    2.1879 C.2     1  UNL1        0.0000
      7 C          -2.4093   -9.1638    2.7045 C.3     1  UNL1        0.0000
      8 C          -4.8873   -9.8635    2.4743 C.3     1  UNL1        0.0000
      9 H          -5.8709   -9.4063    2.3993 H       1  UNL1        0.0000
     10 H          -4.8616  -10.5361    3.3239 H       1  UNL1        0.0000
     11 H          -4.7324  -10.4598    1.5712 H       1  UNL1        0.0000
     12 C          -5.1448   -6.7849    1.6536 C.3     1  UNL1        0.0000
     13 H          -5.1872   -6.6998    0.5656 H       1  UNL1        0.0000
     14 H          -5.1499   -5.7747    2.0679 H       1  UNL1        0.0000
     15 H          -6.0425   -7.3017    1.9871 H       1  UNL1        0.0000
     16 C          -2.2350   -5.8055    1.0333 C.3     1  UNL1        0.0000
     17 H          -1.3558   -5.3080    1.4437 H       1  UNL1        0.0000
     18 H          -3.0580   -5.0951    1.0420 H       1  UNL1        0.0000
     19 H          -2.0196   -6.0772   -0.0032 H       1  UNL1        0.0000
     20 C          -0.2248   -8.0494    1.7916 C.3     1  UNL1        0.0000
     21 H          -0.1245   -8.5577    0.8297 H       1  UNL1        0.0000
     22 H           0.3982   -8.5634    2.5169 H       1  UNL1        0.0000
     23 H           0.1505   -7.0343    1.6697 H       1  UNL1        0.0000
     24 C          -4.7049   -8.0903    5.4384 C.3     1  UNL1        0.0000
     25 C          -4.2531   -6.8788    6.0170 C.2     1  UNL1        0.0000
     26 C          -2.9626   -7.1039    6.5555 C.2     1  UNL1        0.0000
     27 C          -2.6223   -8.4616    6.3111 C.3     1  UNL1        0.0000
     28 C          -3.7131   -9.1080    5.6454 C.3     1  UNL1        0.0000
     29 C          -6.1381   -8.2530    5.0298 C.3     1  UNL1        0.0000
     30 H          -6.7725   -8.1349    5.9127 H       1  UNL1        0.0000
     31 H          -6.3350   -9.2288    4.6051 H       1  UNL1        0.0000
     32 H          -6.4333   -7.4812    4.3170 H       1  UNL1        0.0000
     33 C          -5.1340   -5.6837    6.2275 C.3     1  UNL1        0.0000
     34 H          -5.9219   -5.9394    6.9410 H       1  UNL1        0.0000
     35 H          -5.6086   -5.3695    5.2975 H       1  UNL1        0.0000
     36 H          -4.5774   -4.8378    6.6248 H       1  UNL1        0.0000
     37 C          -2.1739   -6.1789    7.4326 C.3     1  UNL1        0.0000
     38 H          -2.6055   -5.1793    7.4524 H       1  UNL1        0.0000
     39 H          -1.1376   -6.1064    7.0971 H       1  UNL1        0.0000
     40 H          -2.1670   -6.5669    8.4536 H       1  UNL1        0.0000
     41 C          -1.4296   -9.1244    6.9272 C.3     1  UNL1        0.0000
     42 H          -0.5267   -8.5314    6.7753 H       1  UNL1        0.0000
     43 H          -1.2724  -10.1156    6.5132 H       1  UNL1        0.0000
     44 H          -1.5815   -9.2138    8.0050 H       1  UNL1        0.0000
     45 C          -2.6784  -12.2650    3.7294 C.3     1  UNL1        0.0000
     46 H          -3.6578  -12.3578    3.2638 H       1  UNL1        0.0000
     47 H          -2.1495  -13.1883    3.4784 H       1  UNL1        0.0000
     48 C          -2.8363  -12.2161    5.2488 C.3     1  UNL1        0.0000
     49 H          -1.8501  -12.0945    5.6969 H       1  UNL1        0.0000
     50 H          -3.1917  -13.1932    5.5878 H       1  UNL1        0.0000
     51 C           0.0206  -10.7683    3.8775 C.3     1  UNL1        0.0000
     52 H           0.8681  -10.7865    3.1988 H       1  UNL1        0.0000
     53 H           0.1390  -11.6125    4.5503 H       1  UNL1        0.0000
     54 H           0.0905   -9.8593    4.4710 H       1  UNL1        0.0000
     55 C          -1.2961  -11.5295    1.1459 C.3     1  UNL1        0.0000
     56 H          -0.7908  -12.4891    1.1840 H       1  UNL1        0.0000
     57 H          -0.6701  -10.8537    0.5733 H       1  UNL1        0.0000
     58 H          -2.2182  -11.6677    0.5895 H       1  UNL1        0.0000
     59 C          -3.9106  -11.1192    7.9032 C.3     1  UNL1        0.0000
     60 H          -4.5279  -11.9392    8.2567 H       1  UNL1        0.0000
     61 H          -4.2404  -10.2195    8.4142 H       1  UNL1        0.0000
     62 H          -2.8940  -11.3224    8.2212 H       1  UNL1        0.0000
     63 C          -5.8284  -11.5771    5.6560 C.3     1  UNL1        0.0000
     64 H          -6.1165  -11.6151    4.6112 H       1  UNL1        0.0000
     65 H          -6.5721  -10.9920    6.1869 H       1  UNL1        0.0000
     66 H          -5.8924  -12.5933    6.0347 H       1  UNL1        0.0000
@<TRIPOS>BOND
     1    19    16    1
     2    13    12    1
     3    57    55    1
     4    58    55    1
     5    21    20    1
     6    16    18    1
     7    16    17    1
     8    16     5    1
     9    55    56    1
    10    55     1    1
    11    11     8    1
    12    12    15    1
    13    12     4    1
    14    12    14    1
    15    23    20    1
    16    20     6    1
    17    20    22    1
    18     5     4    1
    19     5     6    2
    20     4     3    1
    21     6     7    1
    22     9     8    1
    23     8     3    1
    24     8    10    1
    25     3     7    1
    26     7     1    1
    27     1    45    1
    28     1    51    1
    29    52    51    1
    30    46    45    1
    31    47    45    1
    32    45    48    1
    33    51    54    1
    34    51    53    1
    35    32    29    1
    36    31    29    1
    37    64    63    1
    38    29    24    1
    39    29    30    1
    40    48    50    1
    41    48    49    1
    42    48     2    1
    43    35    33    1
    44    24    28    1
    45    24    25    1
    46    28     2    1
    47    28    27    1
    48    63     2    1
    49    63    66    1
    50    63    65    1
    51     2    59    1
    52    25    33    1
    53    25    26    2
    54    33    36    1
    55    33    34    1
    56    27    26    1
    57    27    41    1
    58    43    41    1
    59    26    37    1
    60    42    41    1
    61    41    44    1
    62    39    37    1
    63    37    38    1
    64    37    40    1
    65    59    62    1
    66    59    60    1
    67    59    61    1
