@<TRIPOS>MOLECULE
2,3,5,7,9,11,12,14,16,17
 36 37 0 0 0
SMALL
GASTEIGER

@<TRIPOS>ATOM
      1 SI          3.8961    3.7045    2.9249 Si      1  UNL1        0.0000
      2 C           2.0732    3.2110    2.7885 C.3     1  UNL1        0.0000
      3 C           1.4389    2.7433    1.6070 C.2     1  UNL1        0.0000
      4 H           1.7363    2.9862    0.5928 H       1  UNL1        0.0000
      5 C           0.2720    2.0356    1.9686 C.2     1  UNL1        0.0000
      6 H          -0.4703    1.6402    1.2847 H       1  UNL1        0.0000
      7 C           0.1799    2.0392    3.3767 C.2     1  UNL1        0.0000
      8 H          -0.6512    1.6579    3.9578 H       1  UNL1        0.0000
      9 C           1.2991    2.7295    3.8853 C.2     1  UNL1        0.0000
     10 H           1.4505    2.9935    4.9266 H       1  UNL1        0.0000
     11 C           4.4331    1.9356    3.3390 C.3     1  UNL1        0.0000
     12 C           4.0316    1.2620    4.5261 C.2     1  UNL1        0.0000
     13 H           3.8371    1.7354    5.4822 H       1  UNL1        0.0000
     14 C           4.1180   -0.1293    4.3116 C.2     1  UNL1        0.0000
     15 H           3.9918   -0.8922    5.0708 H       1  UNL1        0.0000
     16 C           4.5380   -0.3448    2.9718 C.3     1  UNL1        0.0000
     17 C           4.7159    0.9277    2.3752 C.3     1  UNL1        0.0000
     18 H           5.1133    1.0985    1.3798 H       1  UNL1        0.0000
     19 C           4.8467   -1.6785    2.3394 C.3     1  UNL1        0.0000
     20 H           4.9901   -1.5258    1.2616 H       1  UNL1        0.0000
     21 C           3.6894   -2.6620    2.5411 C.3     1  UNL1        0.0000
     22 H           3.5056   -2.8350    3.6009 H       1  UNL1        0.0000
     23 H           3.9270   -3.6168    2.0761 H       1  UNL1        0.0000
     24 H           2.7743   -2.2762    2.0847 H       1  UNL1        0.0000
     25 C           6.1442   -2.2428    2.9312 C.3     1  UNL1        0.0000
     26 H           6.0270   -2.4196    3.9980 H       1  UNL1        0.0000
     27 H           6.9634   -1.5419    2.7870 H       1  UNL1        0.0000
     28 H           6.4024   -3.1833    2.4505 H       1  UNL1        0.0000
     29 C           4.2478    4.9465    4.3251 C.3     1  UNL1        0.0000
     30 H           5.3149    5.1003    4.4423 H       1  UNL1        0.0000
     31 H           3.8565    4.6068    5.2782 H       1  UNL1        0.0000
     32 H           3.7971    5.9084    4.1071 H       1  UNL1        0.0000
     33 C           4.5968    4.2690    1.2467 C.3     1  UNL1        0.0000
     34 H           5.6728    4.3940    1.2989 H       1  UNL1        0.0000
     35 H           4.1706    5.2213    0.9510 H       1  UNL1        0.0000
     36 H           4.3823    3.5496    0.4615 H       1  UNL1        0.0000
@<TRIPOS>BOND
     1    36    33    1
     2     4     3    1
     3    35    33    1
     4    33    34    1
     5    33     1    1
     6    20    19    1
     7     6     5    1
     8    18    17    1
     9     3     5    2
    10     3     2    1
    11     5     7    1
    12    23    21    1
    13    24    21    1
    14    19    21    1
    15    19    25    1
    16    19    16    1
    17    17    16    1
    18    17    11    1
    19    28    25    1
    20    21    22    1
    21    27    25    1
    22     2     1    1
    23     2     9    1
    24     1    11    1
    25     1    29    1
    26    25    26    1
    27    16    14    1
    28    11    12    1
    29     7     9    2
    30     7     8    1
    31     9    10    1
    32    32    29    1
    33    14    12    2
    34    14    15    1
    35    29    30    1
    36    29    31    1
    37    12    13    1
