@<TRIPOS>MOLECULE
2,3,4,5,31,32,33,34,35
 60 61 0 0 0
SMALL
GASTEIGER

@<TRIPOS>ATOM
      1 C          -1.6975    3.3318    5.7175 C.3     1  UNL1        0.0000
      2 C          -2.7403    4.2624    6.0408 C.3     1  UNL1        0.0000
      3 C          -2.1591    5.4065    6.6378 C.2     1  UNL1        0.0000
      4 C          -0.7538    5.2197    6.6837 C.2     1  UNL1        0.0000
      5 C          -0.4590    3.9714    6.0875 C.3     1  UNL1        0.0000
      6 C          -4.2229    4.0708    5.8780 C.3     1  UNL1        0.0000
      7 H          -4.7077    4.0170    6.8550 H       1  UNL1        0.0000
      8 H          -4.4465    3.1561    5.3392 H       1  UNL1        0.0000
      9 H          -4.6589    4.9152    5.3372 H       1  UNL1        0.0000
     10 C          -2.8819    6.5823    7.2276 C.3     1  UNL1        0.0000
     11 H          -2.8479    6.5377    8.3186 H       1  UNL1        0.0000
     12 H          -3.9232    6.5984    6.9146 H       1  UNL1        0.0000
     13 H          -2.4169    7.5192    6.9144 H       1  UNL1        0.0000
     14 C           0.2112    6.1253    7.3915 C.3     1  UNL1        0.0000
     15 H          -0.0687    7.1705    7.2643 H       1  UNL1        0.0000
     16 H           1.2248    5.9959    7.0169 H       1  UNL1        0.0000
     17 H           0.2098    5.9028    8.4615 H       1  UNL1        0.0000
     18 C           0.9294    3.4011    5.9918 C.3     1  UNL1        0.0000
     19 H           1.6295    4.1658    5.6440 H       1  UNL1        0.0000
     20 H           0.9622    2.5570    5.3071 H       1  UNL1        0.0000
     21 H           1.2730    3.0582    6.9705 H       1  UNL1        0.0000
     22 SI         -1.7838    1.4873    5.3130 Si      1  UNL1        0.0000
     23 C          -0.7633    0.5108    6.6123 C.3     1  UNL1        0.0000
     24 H          -0.9571    0.8720    7.6182 H       1  UNL1        0.0000
     25 H           0.3054    0.5750    6.4432 H       1  UNL1        0.0000
     26 H          -1.0306   -0.5409    6.5855 H       1  UNL1        0.0000
     27 C          -3.5298    0.7143    5.4870 C.3     1  UNL1        0.0000
     28 H          -3.4405   -0.3662    5.4346 H       1  UNL1        0.0000
     29 H          -4.2203    1.0104    4.7041 H       1  UNL1        0.0000
     30 H          -3.9846    0.9555    6.4425 H       1  UNL1        0.0000
     31 C          -1.0258    3.3318    2.6911 C.3     1  UNL1        0.0000
     32 C           0.0170    4.2624    2.3678 C.2     1  UNL1        0.0000
     33 C          -0.5643    5.4065    1.7708 C.2     1  UNL1        0.0000
     34 C          -1.9696    5.2197    1.7249 C.2     1  UNL1        0.0000
     35 C          -2.2644    3.9714    2.3211 C.2     1  UNL1        0.0000
     36 C           1.4996    4.0708    2.5306 C.3     1  UNL1        0.0000
     37 H           1.9843    4.0169    1.5537 H       1  UNL1        0.0000
     38 H           1.7231    3.1561    3.0696 H       1  UNL1        0.0000
     39 H           1.9355    4.9153    3.0714 H       1  UNL1        0.0000
     40 C           0.1585    6.5823    1.1810 C.3     1  UNL1        0.0000
     41 H           0.1245    6.5377    0.0901 H       1  UNL1        0.0000
     42 H           1.1999    6.5984    1.4941 H       1  UNL1        0.0000
     43 H          -0.3066    7.5191    1.4943 H       1  UNL1        0.0000
     44 C          -2.9346    6.1252    1.0171 C.3     1  UNL1        0.0000
     45 H          -2.6547    7.1704    1.1443 H       1  UNL1        0.0000
     46 H          -3.9482    5.9959    1.3917 H       1  UNL1        0.0000
     47 H          -2.9332    5.9028   -0.0529 H       1  UNL1        0.0000
     48 C          -3.6528    3.4010    2.4169 C.3     1  UNL1        0.0000
     49 H          -4.3529    4.1658    2.7647 H       1  UNL1        0.0000
     50 H          -3.6856    2.5569    3.1016 H       1  UNL1        0.0000
     51 H          -3.9964    3.0582    1.4382 H       1  UNL1        0.0000
     52 SI         -0.9395    1.4873    3.0957 Si      1  UNL1        0.0000
     53 C          -1.9601    0.5108    1.7964 C.3     1  UNL1        0.0000
     54 H          -1.7663    0.8720    0.7905 H       1  UNL1        0.0000
     55 H          -3.0288    0.5750    1.9655 H       1  UNL1        0.0000
     56 H          -1.6928   -0.5409    1.8232 H       1  UNL1        0.0000
     57 C           0.8065    0.7143    2.9217 C.3     1  UNL1        0.0000
     58 H           0.7171   -0.3662    2.9741 H       1  UNL1        0.0000
     59 H           1.4969    1.0104    3.7046 H       1  UNL1        0.0000
     60 H           1.2613    0.9555    1.9662 H       1  UNL1        0.0000
@<TRIPOS>BOND
     1    47    44    1
     2    41    40    1
     3    54    53    1
     4    44    45    1
     5    44    46    1
     6    44    34    1
     7    40    42    1
     8    40    43    1
     9    40    33    1
    10    51    48    1
    11    37    36    1
    12    34    33    1
    13    34    35    2
    14    33    32    2
    15    53    56    1
    16    53    55    1
    17    53    52    1
    18    60    57    1
    19    35    48    1
    20    35    31    1
    21    32    36    1
    22    32    31    1
    23    48    49    1
    24    48    50    1
    25    36    38    1
    26    36    39    1
    27    31    52    1
    28    57    58    1
    29    57    52    1
    30    57    59    1
    31    52    22    1
    32    29    27    1
    33    20    18    1
    34    22    27    1
    35    22     1    1
    36    22    23    1
    37     9     6    1
    38     8     6    1
    39    28    27    1
    40    27    30    1
    41    19    18    1
    42     1     2    1
    43     1     5    1
    44     6     2    1
    45     6     7    1
    46    18     5    1
    47    18    21    1
    48     2     3    1
    49     5     4    1
    50    25    23    1
    51    26    23    1
    52    23    24    1
    53     3     4    2
    54     3    10    1
    55     4    14    1
    56    13    10    1
    57    12    10    1
    58    16    14    1
    59    10    11    1
    60    15    14    1
    61    14    17    1
