@<TRIPOS>MOLECULE
1,2,4,6,8,10,11,13,15,17
 27 28 0 0 0
SMALL
GASTEIGER

@<TRIPOS>ATOM
      1 C           3.4843   10.6951    4.1253 C.3     1  UNL1        0.0000
      2 C           3.6879    9.4753    4.8372 C.3     1  UNL1        0.0000
      3 H           2.9064    8.9165    5.3374 H       1  UNL1        0.0000
      4 C           5.0721    9.2962    5.0351 C.3     1  UNL1        0.0000
      5 H           5.5406    8.5292    5.6393 H       1  UNL1        0.0000
      6 C           5.7368   10.3383    4.3681 C.2     1  UNL1        0.0000
      7 H           6.8050   10.5165    4.3668 H       1  UNL1        0.0000
      8 C           4.7581   11.1942    3.8104 C.2     1  UNL1        0.0000
      9 H           4.9658   12.1294    3.3064 H       1  UNL1        0.0000
     10 C           2.2738    9.6989    1.9656 C.3     1  UNL1        0.0000
     11 C           3.0789    9.8207    0.8197 C.3     1  UNL1        0.0000
     12 H           3.2590   10.7331    0.2652 H       1  UNL1        0.0000
     13 C           3.5039    8.5311    0.4200 C.2     1  UNL1        0.0000
     14 H           4.0627    8.2997   -0.4782 H       1  UNL1        0.0000
     15 C           2.9653    7.5988    1.3206 C.2     1  UNL1        0.0000
     16 H           3.0462    6.5218    1.2386 H       1  UNL1        0.0000
     17 C           2.2619    8.3146    2.3105 C.3     1  UNL1        0.0000
     18 H           1.6333    7.8728    3.0733 H       1  UNL1        0.0000
     19 SI          1.8904   11.0852    3.1911 Si      1  UNL1        0.0000
     20 C           1.8955   12.8105    2.3876 C.3     1  UNL1        0.0000
     21 H           1.0416   12.9305    1.7293 H       1  UNL1        0.0000
     22 H           2.7938   12.9788    1.8021 H       1  UNL1        0.0000
     23 H           1.8403   13.5869    3.1432 H       1  UNL1        0.0000
     24 C           0.3090   10.7876    4.2115 C.3     1  UNL1        0.0000
     25 H           0.2185   11.5279    4.9991 H       1  UNL1        0.0000
     26 H           0.2974    9.8073    4.6759 H       1  UNL1        0.0000
     27 H          -0.5714   10.8661    3.5827 H       1  UNL1        0.0000
@<TRIPOS>BOND
     1    14    13    1
     2    12    11    1
     3    13    11    1
     4    13    15    2
     5    11    10    1
     6    16    15    1
     7    15    17    1
     8    21    20    1
     9    22    20    1
    10    10    17    1
    11    10    19    1
    12    17    18    1
    13    20    23    1
    14    20    19    1
    15    19     1    1
    16    19    24    1
    17     9     8    1
    18    27    24    1
    19     8     1    1
    20     8     6    2
    21     1     2    1
    22    24    26    1
    23    24    25    1
    24     7     6    1
    25     6     4    1
    26     2     4    1
    27     2     3    1
    28     4     5    1
