@<TRIPOS>MOLECULE
3,5,6,8,14,41,43,44,46,52
 77 80 0 0 0
SMALL
GASTEIGER

@<TRIPOS>ATOM
      1 SI          6.5165   11.1916   10.2233 Si      1  UNL1        0.0000
      2 O           3.4226   11.1110   10.8994 O.3     1  UNL1        0.0000
      3 C           6.3356    6.7179   12.7074 C.2     1  UNL1        0.0000
      4 H           6.0885    5.8032   13.2346 H       1  UNL1        0.0000
      5 C           7.6341    7.2190   12.4828 C.2     1  UNL1        0.0000
      6 C           7.5425    8.4738   11.8250 C.2     1  UNL1        0.0000
      7 H           8.3800    9.1407   11.6660 H       1  UNL1        0.0000
      8 C           6.1553    8.8155   11.7282 C.3     1  UNL1        0.0000
      9 C           5.4768    9.9501   11.2260 C.3     1  UNL1        0.0000
     10 C           4.0938    9.9623   11.3096 C.3     1  UNL1        0.0000
     11 C           3.3275    8.8338   11.7278 C.2     1  UNL1        0.0000
     12 C           3.9990    7.7272   12.2041 C.2     1  UNL1        0.0000
     13 H           3.4660    6.8582   12.5571 H       1  UNL1        0.0000
     14 C           5.4027    7.7085   12.2662 C.2     1  UNL1        0.0000
     15 C           8.9091    6.5799   12.9463 C.3     1  UNL1        0.0000
     16 H           9.2225    7.0248   13.8932 H       1  UNL1        0.0000
     17 H           9.7064    6.7286   12.2180 H       1  UNL1        0.0000
     18 H           8.7722    5.5102   13.0965 H       1  UNL1        0.0000
     19 C           7.4996   12.2612   11.4704 C.3     1  UNL1        0.0000
     20 H           7.4850   13.3085   11.1859 H       1  UNL1        0.0000
     21 H           8.5382   11.9554   11.5217 H       1  UNL1        0.0000
     22 H           7.0870   12.1842   12.4723 H       1  UNL1        0.0000
     23 C           3.6125   12.2304   11.7394 C.3     1  UNL1        0.0000
     24 H           3.0011   13.0283   11.3201 H       1  UNL1        0.0000
     25 H           4.6565   12.5493   11.7630 H       1  UNL1        0.0000
     26 H           3.2831   12.0163   12.7617 H       1  UNL1        0.0000
     27 C           1.8116    8.8087   11.5529 C.3     1  UNL1        0.0000
     28 C           1.1361    9.8963   12.3990 C.3     1  UNL1        0.0000
     29 H           1.4775    9.8397   13.4310 H       1  UNL1        0.0000
     30 H           0.0574    9.7553   12.3870 H       1  UNL1        0.0000
     31 H           1.3490   10.8840   12.0069 H       1  UNL1        0.0000
     32 C           1.2066    7.4590   11.9555 C.3     1  UNL1        0.0000
     33 H           1.3398    7.2669   13.0176 H       1  UNL1        0.0000
     34 H           1.6444    6.6437   11.3841 H       1  UNL1        0.0000
     35 H           0.1379    7.4743   11.7512 H       1  UNL1        0.0000
     36 C           1.4995    9.0286   10.0651 C.3     1  UNL1        0.0000
     37 H           0.4243    9.0036    9.9019 H       1  UNL1        0.0000
     38 H           1.9576    8.2393    9.4712 H       1  UNL1        0.0000
     39 H           1.8792    9.9874    9.7269 H       1  UNL1        0.0000
     40 O           9.6106   11.1109    9.5473 O.3     1  UNL1        0.0000
     41 C           6.6974    6.7180    7.7391 C.2     1  UNL1        0.0000
     42 H           6.9444    5.8033    7.2121 H       1  UNL1        0.0000
     43 C           5.3989    7.2192    7.9635 C.2     1  UNL1        0.0000
     44 C           5.4905    8.4740    8.6214 C.2     1  UNL1        0.0000
     45 H           4.6530    9.1408    8.7807 H       1  UNL1        0.0000
     46 C           6.8777    8.8155    8.7184 C.3     1  UNL1        0.0000
     47 C           7.5563    9.9501    9.2208 C.3     1  UNL1        0.0000
     48 C           8.9393    9.9623    9.1371 C.3     1  UNL1        0.0000
     49 C           9.7055    8.8337    8.7191 C.2     1  UNL1        0.0000
     50 C           9.0341    7.7272    8.2428 C.2     1  UNL1        0.0000
     51 H           9.5670    6.8581    7.8897 H       1  UNL1        0.0000
     52 C           7.6303    7.7086    8.1804 C.2     1  UNL1        0.0000
     53 C           4.1239    6.5800    7.5003 C.3     1  UNL1        0.0000
     54 H           3.8105    7.0248    6.5533 H       1  UNL1        0.0000
     55 H           3.3266    6.7288    8.2286 H       1  UNL1        0.0000
     56 H           4.2608    5.5103    7.3502 H       1  UNL1        0.0000
     57 C           5.5331   12.2614    8.9762 C.3     1  UNL1        0.0000
     58 H           5.5458   13.3085    9.2630 H       1  UNL1        0.0000
     59 H           4.4950   11.9531    8.9237 H       1  UNL1        0.0000
     60 H           5.9480   12.1860    7.9748 H       1  UNL1        0.0000
     61 C           9.4206   12.2304    8.7073 C.3     1  UNL1        0.0000
     62 H          10.0321   13.0283    9.1266 H       1  UNL1        0.0000
     63 H           8.3766   12.5494    8.6840 H       1  UNL1        0.0000
     64 H           9.7498   12.0163    7.6850 H       1  UNL1        0.0000
     65 C          11.2215    8.8087    8.8939 C.3     1  UNL1        0.0000
     66 C          11.8969    9.8961    8.0477 C.3     1  UNL1        0.0000
     67 H          11.5556    9.8394    7.0157 H       1  UNL1        0.0000
     68 H          12.9757    9.7552    8.0598 H       1  UNL1        0.0000
     69 H          11.6840   10.8839    8.4397 H       1  UNL1        0.0000
     70 C          11.8265    7.4589    8.4914 C.3     1  UNL1        0.0000
     71 H          11.6932    7.2668    7.4293 H       1  UNL1        0.0000
     72 H          11.3886    6.6436    9.0628 H       1  UNL1        0.0000
     73 H          12.8952    7.4742    8.6957 H       1  UNL1        0.0000
     74 C          11.5336    9.0287   10.3817 C.3     1  UNL1        0.0000
     75 H          12.6088    9.0036   10.5449 H       1  UNL1        0.0000
     76 H          11.0755    8.2394   10.9756 H       1  UNL1        0.0000
     77 H          11.1539    9.9875   10.7198 H       1  UNL1        0.0000
@<TRIPOS>BOND
     1    54    53    1
     2    67    66    1
     3    42    41    1
     4    56    53    1
     5    71    70    1
     6    53    43    1
     7    53    55    1
     8    64    61    1
     9    41    43    1
    10    41    52    2
    11    51    50    1
    12    43    44    2
    13    60    57    1
    14    66    68    1
    15    66    69    1
    16    66    65    1
    17    52    50    1
    18    52    46    1
    19    50    49    2
    20    70    73    1
    21    70    65    1
    22    70    72    1
    23    44    46    1
    24    44    45    1
    25    63    61    1
    26    61    62    1
    27    61    40    1
    28    46    47    1
    29    49    65    1
    30    49    48    1
    31    65    74    1
    32    59    57    1
    33    57    58    1
    34    57     1    1
    35    48    47    1
    36    48    40    1
    37    47     1    1
    38    38    36    1
    39    39    36    1
    40    37    36    1
    41    36    27    1
    42     1     9    1
    43     1    19    1
    44    74    75    1
    45    74    77    1
    46    74    76    1
    47     2    10    1
    48     2    23    1
    49    20    19    1
    50     9    10    1
    51     9     8    1
    52    10    11    1
    53    24    23    1
    54    34    32    1
    55    19    21    1
    56    19    22    1
    57    27    11    1
    58    27    32    1
    59    27    28    1
    60     7     6    1
    61    11    12    2
    62     8     6    1
    63     8    14    1
    64    23    25    1
    65    23    26    1
    66    35    32    1
    67     6     5    2
    68    32    33    1
    69    31    28    1
    70    12    14    1
    71    12    13    1
    72    17    15    1
    73    14     3    2
    74    30    28    1
    75    28    29    1
    76     5     3    1
    77     5    15    1
    78     3     4    1
    79    15    18    1
    80    15    16    1
