@<TRIPOS>MOLECULE
4,6,8,17,18,19,21,23,32
 58 62 0 0 0
SMALL
GASTEIGER

@<TRIPOS>ATOM
      1 SI         -2.0863    7.8984    5.3901 Si      1  UNL1        0.0000
      2 SI         -0.8057    7.0716    1.9698 Si      1  UNL1        0.0000
      3 C          -1.5704    6.1514    5.8516 C.3     1  UNL1        0.0000
      4 C          -0.6039    5.8657    6.8808 C.2     1  UNL1        0.0000
      5 H           0.0352    6.6117    7.3370 H       1  UNL1        0.0000
      6 C          -0.6682    4.5252    7.2545 C.2     1  UNL1        0.0000
      7 H          -0.0913    4.0471    8.0325 H       1  UNL1        0.0000
      8 C          -1.7338    3.9169    6.5234 C.ar    1  UNL1        0.0000
      9 C          -2.2866    2.6260    6.5513 C.ar    1  UNL1        0.0000
     10 H          -1.8253    1.8534    7.1491 H       1  UNL1        0.0000
     11 C          -3.4370    2.3795    5.8420 C.ar    1  UNL1        0.0000
     12 H          -3.8801    1.3954    5.8641 H       1  UNL1        0.0000
     13 C          -4.0765    3.3958    5.1152 C.ar    1  UNL1        0.0000
     14 H          -5.0085    3.1748    4.6168 H       1  UNL1        0.0000
     15 C          -3.5472    4.6617    5.0393 C.ar    1  UNL1        0.0000
     16 H          -4.0598    5.4487    4.5015 H       1  UNL1        0.0000
     17 C          -2.3405    4.9379    5.7055 C.ar    1  UNL1        0.0000
     18 C          -0.4783    5.3374    2.6341 C.3     1  UNL1        0.0000
     19 C          -1.5132    4.3187    2.7483 C.2     1  UNL1        0.0000
     20 H          -2.5704    4.5431    2.7818 H       1  UNL1        0.0000
     21 C          -0.9776    3.0526    2.6028 C.2     1  UNL1        0.0000
     22 H          -1.5236    2.1237    2.6182 H       1  UNL1        0.0000
     23 C           0.4135    3.1839    2.3162 C.ar    1  UNL1        0.0000
     24 C           1.4017    2.2376    2.0234 C.ar    1  UNL1        0.0000
     25 H           1.1627    1.1845    2.0353 H       1  UNL1        0.0000
     26 C           2.6703    2.6737    1.7220 C.ar    1  UNL1        0.0000
     27 H           3.4438    1.9568    1.4911 H       1  UNL1        0.0000
     28 C           2.9806    4.0386    1.7050 C.ar    1  UNL1        0.0000
     29 H           3.9853    4.3448    1.4542 H       1  UNL1        0.0000
     30 C           2.0324    4.9935    1.9974 C.ar    1  UNL1        0.0000
     31 H           2.2816    6.0446    1.9662 H       1  UNL1        0.0000
     32 C           0.7306    4.5799    2.3130 C.ar    1  UNL1        0.0000
     33 C          -0.5657    9.0455    5.4943 C.3     1  UNL1        0.0000
     34 H           0.3592    8.5130    5.2984 H       1  UNL1        0.0000
     35 H          -0.6321    9.8757    4.8007 H       1  UNL1        0.0000
     36 H          -0.4929    9.4680    6.4917 H       1  UNL1        0.0000
     37 C          -3.2430    8.4422    6.8200 C.3     1  UNL1        0.0000
     38 H          -4.1149    7.8013    6.9119 H       1  UNL1        0.0000
     39 H          -2.7104    8.3887    7.7657 H       1  UNL1        0.0000
     40 H          -3.5848    9.4653    6.6994 H       1  UNL1        0.0000
     41 C           0.5407    8.3529    2.4080 C.3     1  UNL1        0.0000
     42 H           1.2144    8.4800    1.5659 H       1  UNL1        0.0000
     43 H           0.1141    9.3254    2.6248 H       1  UNL1        0.0000
     44 H           1.1386    8.0481    3.2600 H       1  UNL1        0.0000
     45 C          -0.6894    6.8552    0.0675 C.3     1  UNL1        0.0000
     46 H           0.3114    6.5284   -0.2022 H       1  UNL1        0.0000
     47 H          -1.3768    6.1017   -0.3054 H       1  UNL1        0.0000
     48 H          -0.8827    7.7832   -0.4615 H       1  UNL1        0.0000
     49 C          -3.0524    7.9513    3.7368 C.ar    1  UNL1        0.0000
     50 C          -2.5764    7.6215    2.4527 C.ar    1  UNL1        0.0000
     51 C          -3.4613    7.7207    1.3779 C.ar    1  UNL1        0.0000
     52 H          -3.1122    7.4733    0.3893 H       1  UNL1        0.0000
     53 C          -4.7743    8.1249    1.5230 C.ar    1  UNL1        0.0000
     54 H          -5.4238    8.1833    0.6618 H       1  UNL1        0.0000
     55 C          -5.2394    8.4552    2.7809 C.ar    1  UNL1        0.0000
     56 H          -6.2599    8.7791    2.9250 H       1  UNL1        0.0000
     57 C          -4.3803    8.3663    3.8591 C.ar    1  UNL1        0.0000
     58 H          -4.7602    8.6281    4.8326 H       1  UNL1        0.0000
@<TRIPOS>BOND
     1    48    45    1
     2    47    45    1
     3    46    45    1
     4    45     2    1
     5    52    51    1
     6    54    53    1
     7    51    53   ar
     8    51    50   ar
     9    29    28    1
    10    27    26    1
    11    53    55   ar
    12    42    41    1
    13    28    26   ar
    14    28    30   ar
    15    26    24   ar
    16    31    30    1
    17     2    41    1
    18     2    50    1
    19     2    18    1
    20    30    32   ar
    21    24    25    1
    22    24    23   ar
    23    32    23   ar
    24    32    18    1
    25    23    21    1
    26    41    43    1
    27    41    44    1
    28    50    49   ar
    29    21    22    1
    30    21    19    2
    31    18    19    1
    32    19    20    1
    33    55    56    1
    34    55    57   ar
    35    49    57   ar
    36    49     1    1
    37    57    58    1
    38    16    15    1
    39    14    13    1
    40    35    33    1
    41    15    13   ar
    42    15    17   ar
    43    13    11   ar
    44    34    33    1
    45     1    33    1
    46     1     3    1
    47     1    37    1
    48    33    36    1
    49    17     3    1
    50    17     8   ar
    51    11    12    1
    52    11     9   ar
    53     3     4    1
    54     8     9   ar
    55     8     6    1
    56     9    10    1
    57    40    37    1
    58    37    38    1
    59    37    39    1
    60     4     6    2
    61     4     5    1
    62     6     7    1
