@<TRIPOS>MOLECULE
4,13,14,16,44,45,47,49,58
 58 62 0 0 0
SMALL
GASTEIGER

@<TRIPOS>ATOM
      1 SI          4.8746    1.3427    5.7668 Si      1  UNL1        0.0000
      2 SI          6.2692    0.8257    2.3327 Si      1  UNL1        0.0000
      3 C           4.6791    3.1031    5.1437 C.3     1  UNL1        0.0000
      4 C           3.5328    3.9581    5.3510 C.ar    1  UNL1        0.0000
      5 C           2.2007    3.6791    5.7087 C.ar    1  UNL1        0.0000
      6 H           1.8866    2.6574    5.8768 H       1  UNL1        0.0000
      7 C           1.3226    4.7247    5.8606 C.ar    1  UNL1        0.0000
      8 H           0.2982    4.5280    6.1400 H       1  UNL1        0.0000
      9 C           1.7277    6.0567    5.6692 C.ar    1  UNL1        0.0000
     10 H           1.0047    6.8461    5.8086 H       1  UNL1        0.0000
     11 C           3.0149    6.3683    5.3081 C.ar    1  UNL1        0.0000
     12 H           3.3192    7.3956    5.1603 H       1  UNL1        0.0000
     13 C           3.9408    5.3246    5.1325 C.ar    1  UNL1        0.0000
     14 C           5.3294    5.3113    4.7915 C.2     1  UNL1        0.0000
     15 H           5.9547    6.1870    4.6660 H       1  UNL1        0.0000
     16 C           5.7722    3.9826    4.8779 C.2     1  UNL1        0.0000
     17 H           6.8081    3.6675    4.8676 H       1  UNL1        0.0000
     18 C           4.7495    1.5380    7.6749 C.3     1  UNL1        0.0000
     19 H           3.7768    1.9433    7.9412 H       1  UNL1        0.0000
     20 H           5.4959    2.2212    8.0690 H       1  UNL1        0.0000
     21 H           4.8553    0.5877    8.1889 H       1  UNL1        0.0000
     22 C           3.4911    0.1057    5.3161 C.3     1  UNL1        0.0000
     23 H           2.8491   -0.0546    6.1772 H       1  UNL1        0.0000
     24 H           3.8881   -0.8611    5.0287 H       1  UNL1        0.0000
     25 H           2.8681    0.4698    4.5063 H       1  UNL1        0.0000
     26 C           6.6597    0.8198    5.2976 C.ar    1  UNL1        0.0000
     27 C           7.5009    0.5817    6.3851 C.ar    1  UNL1        0.0000
     28 H           7.0908    0.6202    7.3806 H       1  UNL1        0.0000
     29 C           8.8457    0.2978    6.2437 C.ar    1  UNL1        0.0000
     30 H           9.4593    0.1208    7.1151 H       1  UNL1        0.0000
     31 C           9.3925    0.2542    4.9759 C.ar    1  UNL1        0.0000
     32 H          10.4444    0.0526    4.8347 H       1  UNL1        0.0000
     33 C           8.5718    0.4590    3.8836 C.ar    1  UNL1        0.0000
     34 H           9.0119    0.4037    2.9014 H       1  UNL1        0.0000
     35 C           7.2076    0.7320    4.0029 C.ar    1  UNL1        0.0000
     36 C           7.4474    0.2370    0.9340 C.3     1  UNL1        0.0000
     37 H           6.9086    0.1880   -0.0083 H       1  UNL1        0.0000
     38 H           7.8449   -0.7532    1.1322 H       1  UNL1        0.0000
     39 H           8.2834    0.9135    0.7834 H       1  UNL1        0.0000
     40 C           4.7533   -0.3287    2.2420 C.3     1  UNL1        0.0000
     41 H           4.6394   -0.7117    1.2324 H       1  UNL1        0.0000
     42 H           3.8359    0.1901    2.5004 H       1  UNL1        0.0000
     43 H           4.8581   -1.1854    2.8976 H       1  UNL1        0.0000
     44 C           5.7438    2.5521    1.8159 C.3     1  UNL1        0.0000
     45 C           4.6997    2.7917    0.8650 C.2     1  UNL1        0.0000
     46 H           4.0684    2.0182    0.4404 H       1  UNL1        0.0000
     47 C           4.6622    4.1426    0.5093 C.2     1  UNL1        0.0000
     48 H           4.0010    4.5993   -0.2167 H       1  UNL1        0.0000
     49 C           5.7311    4.8022    1.1926 C.ar    1  UNL1        0.0000
     50 C           6.1793    6.1354    1.1986 C.ar    1  UNL1        0.0000
     51 H           5.6286    6.8946    0.6594 H       1  UNL1        0.0000
     52 C           7.3469    6.4391    1.8573 C.ar    1  UNL1        0.0000
     53 H           7.7140    7.4546    1.8593 H       1  UNL1        0.0000
     54 C           8.1050    5.4430    2.4966 C.ar    1  UNL1        0.0000
     55 H           9.0483    5.7147    2.9468 H       1  UNL1        0.0000
     56 C           7.6760    4.1386    2.5472 C.ar    1  UNL1        0.0000
     57 H           8.2812    3.3722    3.0151 H       1  UNL1        0.0000
     58 C           6.4524    3.7971    1.9418 C.ar    1  UNL1        0.0000
@<TRIPOS>BOND
     1    48    47    1
     2    37    36    1
     3    46    45    1
     4    47    45    2
     5    47    49    1
     6    51    50    1
     7    39    36    1
     8    45    44    1
     9    36    38    1
    10    36     2    1
    11    49    50   ar
    12    49    58   ar
    13    50    52   ar
    14    41    40    1
    15    44    58    1
    16    44     2    1
    17    52    53    1
    18    52    54   ar
    19    58    56   ar
    20    40     2    1
    21    40    42    1
    22    40    43    1
    23     2    35    1
    24    54    56   ar
    25    54    55    1
    26    56    57    1
    27    34    33    1
    28    33    35   ar
    29    33    31   ar
    30    35    26   ar
    31    25    22    1
    32    15    14    1
    33    14    16    2
    34    14    13    1
    35    32    31    1
    36    17    16    1
    37    16     3    1
    38    31    29   ar
    39    24    22    1
    40    13    11   ar
    41    13     4   ar
    42     3     4    1
    43     3     1    1
    44    12    11    1
    45    26     1    1
    46    26    27   ar
    47    11     9   ar
    48    22     1    1
    49    22    23    1
    50     4     5   ar
    51     9    10    1
    52     9     7   ar
    53     5     7   ar
    54     5     6    1
    55     1    18    1
    56     7     8    1
    57    29    27   ar
    58    29    30    1
    59    27    28    1
    60    18    19    1
    61    18    20    1
    62    18    21    1
