@<TRIPOS>MOLECULE
2,4,5,6,7,49,51,52,53,54
 95 100 0 0 0
SMALL
GASTEIGER

@<TRIPOS>ATOM
      1 SI         -0.0000    0.0000    1.1103 Si      1  UNL1        0.0000
      2 C           0.9728    2.2906    4.3766 C.2     1  UNL1        0.0000
      3 H           1.6707    2.6841    5.1025 H       1  UNL1        0.0000
      4 C          -0.4187    2.5864    4.3152 C.2     1  UNL1        0.0000
      5 C           0.1525    1.3620    2.4286 C.3     1  UNL1        0.0000
      6 C          -0.9160    2.0157    3.1066 C.3     1  UNL1        0.0000
      7 C           1.3273    1.5212    3.2503 C.3     1  UNL1        0.0000
      8 C          -1.1441    3.3616    5.2960 C.2     1  UNL1        0.0000
      9 C          -2.4916    3.4478    5.3937 C.2     1  UNL1        0.0000
     10 H          -2.8824    4.0191    6.2264 H       1  UNL1        0.0000
     11 C          -3.4790    2.7369    4.6287 C.2     1  UNL1        0.0000
     12 H          -4.4167    2.5910    5.1512 H       1  UNL1        0.0000
     13 C          -3.3740    2.2323    3.3958 C.2     1  UNL1        0.0000
     14 H          -4.2183    1.6891    2.9915 H       1  UNL1        0.0000
     15 C          -2.2103    2.4386    2.4662 C.3     1  UNL1        0.0000
     16 H          -2.3661    1.8543    1.5557 H       1  UNL1        0.0000
     17 C          -0.3393    4.0203    6.3521 C.ar    1  UNL1        0.0000
     18 C           0.3774    3.2474    7.2617 C.ar    1  UNL1        0.0000
     19 H           0.3467    2.1669    7.1875 H       1  UNL1        0.0000
     20 C           1.1043    3.8534    8.2697 C.ar    1  UNL1        0.0000
     21 H           1.6546    3.2444    8.9717 H       1  UNL1        0.0000
     22 C           1.1245    5.2341    8.3810 C.ar    1  UNL1        0.0000
     23 H           1.6948    5.7059    9.1677 H       1  UNL1        0.0000
     24 C           0.4058    6.0076    7.4855 C.ar    1  UNL1        0.0000
     25 H           0.4139    7.0845    7.5724 H       1  UNL1        0.0000
     26 C          -0.3264    5.4039    6.4785 C.ar    1  UNL1        0.0000
     27 H          -0.8886    6.0053    5.7783 H       1  UNL1        0.0000
     28 C           2.7487    1.1763    2.9087 C.3     1  UNL1        0.0000
     29 H           3.1092    1.8145    2.0997 H       1  UNL1        0.0000
     30 H           2.8572    0.1391    2.6031 H       1  UNL1        0.0000
     31 H           3.3838    1.3415    3.7784 H       1  UNL1        0.0000
     32 C          -2.0999    3.9179    2.0356 C.3     1  UNL1        0.0000
     33 H          -1.9913    4.5393    2.9247 H       1  UNL1        0.0000
     34 H          -1.1991    4.0361    1.4288 H       1  UNL1        0.0000
     35 C          -3.3193    4.3714    1.2393 C.3     1  UNL1        0.0000
     36 H          -4.2154    4.2429    1.8502 H       1  UNL1        0.0000
     37 H          -3.4288    3.7441    0.3506 H       1  UNL1        0.0000
     38 C          -3.2073    5.8325    0.8116 C.3     1  UNL1        0.0000
     39 H          -3.1035    6.4592    1.7000 H       1  UNL1        0.0000
     40 H          -2.3064    5.9638    0.2076 H       1  UNL1        0.0000
     41 C          -4.4236    6.2841    0.0126 C.3     1  UNL1        0.0000
     42 H          -4.5339    5.6830   -0.8877 H       1  UNL1        0.0000
     43 H          -4.3246    7.3264   -0.2813 H       1  UNL1        0.0000
     44 H          -5.3293    6.1793    0.6060 H       1  UNL1        0.0000
     45 C           1.4804   -0.0523   -0.0929 C.3     1  UNL1        0.0000
     46 H           1.4947   -0.9969   -0.6269 H       1  UNL1        0.0000
     47 H           2.4504    0.0891    0.3653 H       1  UNL1        0.0000
     48 H           1.3568    0.7320   -0.8331 H       1  UNL1        0.0000
     49 C          -0.9728   -2.2904    4.3767 C.2     1  UNL1        0.0000
     50 H          -1.6707   -2.6840    5.1025 H       1  UNL1        0.0000
     51 C           0.4187   -2.5864    4.3152 C.2     1  UNL1        0.0000
     52 C          -0.1525   -1.3620    2.4286 C.3     1  UNL1        0.0000
     53 C           0.9160   -2.0157    3.1067 C.3     1  UNL1        0.0000
     54 C          -1.3273   -1.5211    3.2503 C.3     1  UNL1        0.0000
     55 C           1.1441   -3.3616    5.2960 C.2     1  UNL1        0.0000
     56 C           2.4916   -3.4478    5.3937 C.2     1  UNL1        0.0000
     57 H           2.8824   -4.0191    6.2264 H       1  UNL1        0.0000
     58 C           3.4790   -2.7369    4.6287 C.2     1  UNL1        0.0000
     59 H           4.4167   -2.5910    5.1512 H       1  UNL1        0.0000
     60 C           3.3740   -2.2323    3.3958 C.2     1  UNL1        0.0000
     61 H           4.2183   -1.6891    2.9915 H       1  UNL1        0.0000
     62 C           2.2103   -2.4386    2.4662 C.3     1  UNL1        0.0000
     63 H           2.3661   -1.8543    1.5557 H       1  UNL1        0.0000
     64 C           0.3393   -4.0203    6.3521 C.ar    1  UNL1        0.0000
     65 C          -0.3774   -3.2474    7.2617 C.ar    1  UNL1        0.0000
     66 H          -0.3467   -2.1669    7.1875 H       1  UNL1        0.0000
     67 C          -1.1043   -3.8534    8.2697 C.ar    1  UNL1        0.0000
     68 H          -1.6545   -3.2444    8.9717 H       1  UNL1        0.0000
     69 C          -1.1245   -5.2341    8.3810 C.ar    1  UNL1        0.0000
     70 H          -1.6948   -5.7059    9.1677 H       1  UNL1        0.0000
     71 C          -0.4058   -6.0075    7.4855 C.ar    1  UNL1        0.0000
     72 H          -0.4140   -7.0845    7.5724 H       1  UNL1        0.0000
     73 C           0.3264   -5.4038    6.4785 C.ar    1  UNL1        0.0000
     74 H           0.8885   -6.0053    5.7783 H       1  UNL1        0.0000
     75 C          -2.7487   -1.1763    2.9088 C.3     1  UNL1        0.0000
     76 H          -3.1092   -1.8145    2.0997 H       1  UNL1        0.0000
     77 H          -2.8572   -0.1391    2.6032 H       1  UNL1        0.0000
     78 H          -3.3838   -1.3415    3.7785 H       1  UNL1        0.0000
     79 C           2.0999   -3.9179    2.0356 C.3     1  UNL1        0.0000
     80 H           1.9913   -4.5393    2.9247 H       1  UNL1        0.0000
     81 H           1.1991   -4.0361    1.4288 H       1  UNL1        0.0000
     82 C           3.3193   -4.3715    1.2394 C.3     1  UNL1        0.0000
     83 H           4.2154   -4.2429    1.8503 H       1  UNL1        0.0000
     84 H           3.4288   -3.7441    0.3506 H       1  UNL1        0.0000
     85 C           3.2073   -5.8325    0.8116 C.3     1  UNL1        0.0000
     86 H           3.1035   -6.4592    1.7000 H       1  UNL1        0.0000
     87 H           2.3064   -5.9638    0.2076 H       1  UNL1        0.0000
     88 C           4.4236   -6.2841    0.0125 C.3     1  UNL1        0.0000
     89 H           4.5338   -5.6830   -0.8877 H       1  UNL1        0.0000
     90 H           4.3246   -7.3264   -0.2814 H       1  UNL1        0.0000
     91 H           5.3293   -6.1793    0.6059 H       1  UNL1        0.0000
     92 C          -1.4804    0.0523   -0.0929 C.3     1  UNL1        0.0000
     93 H          -1.4947    0.9969   -0.6269 H       1  UNL1        0.0000
     94 H          -2.4504   -0.0891    0.3653 H       1  UNL1        0.0000
     95 H          -1.3568   -0.7320   -0.8331 H       1  UNL1        0.0000
@<TRIPOS>BOND
     1    89    88    1
     2    42    41    1
     3    48    45    1
     4    95    92    1
     5    93    92    1
     6    46    45    1
     7    90    88    1
     8    43    41    1
     9    45    47    1
    10    45     1    1
    11    92    94    1
    12    92     1    1
    13    88    91    1
    14    88    85    1
    15    41    44    1
    16    41    38    1
    17    40    38    1
    18    87    85    1
    19    37    35    1
    20    84    82    1
    21    38    35    1
    22    38    39    1
    23    85    82    1
    24    85    86    1
    25     1     5    1
    26     1    52    1
    27    35    36    1
    28    35    32    1
    29    82    83    1
    30    82    79    1
    31    81    79    1
    32    34    32    1
    33    16    15    1
    34    63    62    1
    35    32    15    1
    36    32    33    1
    37    79    62    1
    38    79    80    1
    39    29    28    1
    40    76    75    1
    41     5     6    1
    42     5     7    1
    43    52    53    1
    44    52    54    1
    45    62    53    1
    46    62    60    1
    47    15     6    1
    48    15    13    1
    49    30    28    1
    50    77    75    1
    51    28     7    1
    52    28    31    1
    53    75    54    1
    54    75    78    1
    55    61    60    1
    56    14    13    1
    57     6     4    1
    58    53    51    1
    59     7     2    1
    60    54    49    1
    61    13    11    2
    62    60    58    2
    63     4     2    2
    64     4     8    1
    65    51    49    2
    66    51    55    1
    67     2     3    1
    68    49    50    1
    69    58    59    1
    70    58    56    1
    71    11    12    1
    72    11     9    1
    73     8     9    2
    74     8    17    1
    75    55    56    2
    76    55    64    1
    77    56    57    1
    78     9    10    1
    79    74    73    1
    80    27    26    1
    81    64    73   ar
    82    64    65   ar
    83    17    26   ar
    84    17    18   ar
    85    73    71   ar
    86    26    24   ar
    87    19    18    1
    88    66    65    1
    89    18    20   ar
    90    65    67   ar
    91    71    72    1
    92    71    69   ar
    93    24    25    1
    94    24    22   ar
    95    20    22   ar
    96    20    21    1
    97    67    69   ar
    98    67    68    1
    99    22    23    1
   100    69    70    1
