@<TRIPOS>MOLECULE
2,3,4,6,7,9,10,11,13,14
 75 76 0 0 0
SMALL
GASTEIGER

@<TRIPOS>ATOM
      1 SI          1.7901    9.1806   -2.0101 Si      1  UNL1        0.0000
      2 C           3.1373   10.4974   -1.7204 C.3     1  UNL1        0.0000
      3 C           4.5636   10.5360   -1.8676 C.3     1  UNL1        0.0000
      4 C           5.0520   11.5503   -1.0136 C.2     1  UNL1        0.0000
      5 H           6.0761   11.8866   -0.9642 H       1  UNL1        0.0000
      6 C           3.9806   12.1573   -0.3203 C.2     1  UNL1        0.0000
      7 C           2.8063   11.4957   -0.7411 C.3     1  UNL1        0.0000
      8 H           1.8044   11.8422   -0.5412 H       1  UNL1        0.0000
      9 C           2.1253    8.2728   -0.3680 C.3     1  UNL1        0.0000
     10 C           1.7665    8.4944    1.0030 C.3     1  UNL1        0.0000
     11 C           2.7208    7.8291    1.8050 C.2     1  UNL1        0.0000
     12 H           2.6759    7.7308    2.8786 H       1  UNL1        0.0000
     13 C           3.6824    7.1937    0.9876 C.2     1  UNL1        0.0000
     14 C           3.3265    7.4841   -0.3477 C.3     1  UNL1        0.0000
     15 H           3.7484    6.9967   -1.2127 H       1  UNL1        0.0000
     16 C           4.0967   13.4470    0.4677 C.3     1  UNL1        0.0000
     17 C           4.1922   14.6005   -0.5461 C.3     1  UNL1        0.0000
     18 H           5.0511   14.4660   -1.1993 H       1  UNL1        0.0000
     19 H           4.2963   15.5506   -0.0269 H       1  UNL1        0.0000
     20 H           3.2970   14.6374   -1.1631 H       1  UNL1        0.0000
     21 C           5.3638   13.4250    1.3337 C.3     1  UNL1        0.0000
     22 H           5.3828   12.5344    1.9623 H       1  UNL1        0.0000
     23 H           5.3908   14.3011    1.9783 H       1  UNL1        0.0000
     24 H           6.2604   13.4337    0.7182 H       1  UNL1        0.0000
     25 C           2.8755   13.6753    1.3644 C.3     1  UNL1        0.0000
     26 H           1.9629   13.7405    0.7757 H       1  UNL1        0.0000
     27 H           2.9893   14.6110    1.9076 H       1  UNL1        0.0000
     28 H           2.7801   12.8708    2.0906 H       1  UNL1        0.0000
     29 C           0.4606    9.0426    1.5562 C.3     1  UNL1        0.0000
     30 C           0.3928    8.8614    3.0783 C.3     1  UNL1        0.0000
     31 H           1.1993    9.4079    3.5632 H       1  UNL1        0.0000
     32 H           0.4513    7.8111    3.3527 H       1  UNL1        0.0000
     33 H          -0.5530    9.2511    3.4495 H       1  UNL1        0.0000
     34 C           0.3081   10.5401    1.2707 C.3     1  UNL1        0.0000
     35 H          -0.5582   10.9328    1.8007 H       1  UNL1        0.0000
     36 H           0.1548   10.7113    0.2106 H       1  UNL1        0.0000
     37 H           1.1953   11.0725    1.6208 H       1  UNL1        0.0000
     38 C          -0.6999    8.2652    0.9188 C.3     1  UNL1        0.0000
     39 H          -0.6244    7.2099    1.1699 H       1  UNL1        0.0000
     40 H          -0.6780    8.3589   -0.1627 H       1  UNL1        0.0000
     41 H          -1.6529    8.6412    1.2848 H       1  UNL1        0.0000
     42 C           5.4150    9.8791   -2.9424 C.3     1  UNL1        0.0000
     43 C           6.8617   10.3863   -2.8804 C.3     1  UNL1        0.0000
     44 H           7.4490    9.9077   -3.6616 H       1  UNL1        0.0000
     45 H           7.3103   10.1415   -1.9196 H       1  UNL1        0.0000
     46 H           6.9093   11.4608   -3.0386 H       1  UNL1        0.0000
     47 C           4.8275   10.2421   -4.3138 C.3     1  UNL1        0.0000
     48 H           5.4073    9.7777   -5.1085 H       1  UNL1        0.0000
     49 H           4.8480   11.3202   -4.4546 H       1  UNL1        0.0000
     50 H           3.7966    9.9098   -4.3914 H       1  UNL1        0.0000
     51 C           5.4605    8.3567   -2.7770 C.3     1  UNL1        0.0000
     52 H           4.4926    7.9207   -2.9998 H       1  UNL1        0.0000
     53 H           5.7680    8.1077   -1.7588 H       1  UNL1        0.0000
     54 H           6.1860    7.9296   -3.4675 H       1  UNL1        0.0000
     55 C           4.6875    6.1756    1.4886 C.3     1  UNL1        0.0000
     56 C           3.9256    4.8652    1.7527 C.3     1  UNL1        0.0000
     57 H           3.1374    5.0214    2.4853 H       1  UNL1        0.0000
     58 H           4.6048    4.1043    2.1306 H       1  UNL1        0.0000
     59 H           3.4703    4.5002    0.8346 H       1  UNL1        0.0000
     60 C           5.7874    5.9099    0.4555 C.3     1  UNL1        0.0000
     61 H           6.4858    5.1721    0.8450 H       1  UNL1        0.0000
     62 H           6.3406    6.8226    0.2442 H       1  UNL1        0.0000
     63 H           5.3702    5.5182   -0.4697 H       1  UNL1        0.0000
     64 C           5.3273    6.6635    2.7958 C.3     1  UNL1        0.0000
     65 H           4.5956    6.7056    3.5994 H       1  UNL1        0.0000
     66 H           5.7564    7.6570    2.6650 H       1  UNL1        0.0000
     67 H           6.1206    5.9839    3.0996 H       1  UNL1        0.0000
     68 C           1.8710    7.8997   -3.4315 C.3     1  UNL1        0.0000
     69 H           0.8727    7.5069   -3.5966 H       1  UNL1        0.0000
     70 H           2.5126    7.0512   -3.2253 H       1  UNL1        0.0000
     71 H           2.1946    8.3454   -4.3656 H       1  UNL1        0.0000
     72 C           0.1426   10.0806   -2.3884 C.3     1  UNL1        0.0000
     73 H           0.0757   10.2363   -3.4606 H       1  UNL1        0.0000
     74 H           0.0525   11.0547   -1.9230 H       1  UNL1        0.0000
     75 H          -0.7198    9.4901   -2.0993 H       1  UNL1        0.0000
@<TRIPOS>BOND
     1    48    47    1
     2    49    47    1
     3    50    47    1
     4    71    68    1
     5    47    42    1
     6    44    43    1
     7    69    68    1
     8    54    51    1
     9    73    72    1
    10    68    70    1
    11    68     1    1
    12    46    43    1
    13    52    51    1
    14    42    43    1
    15    42    51    1
    16    42     3    1
    17    43    45    1
    18    51    53    1
    19    72    75    1
    20    72     1    1
    21    72    74    1
    22     1     2    1
    23     1     9    1
    24     3     2    1
    25     3     4    1
    26     2     7    1
    27    15    14    1
    28    18    17    1
    29    20    17    1
    30     4     5    1
    31     4     6    2
    32     7     8    1
    33     7     6    1
    34    17    19    1
    35    17    16    1
    36    63    60    1
    37     9    14    1
    38     9    10    1
    39    14    13    1
    40     6    16    1
    41    40    38    1
    42    36    34    1
    43    62    60    1
    44    60    61    1
    45    60    55    1
    46    16    21    1
    47    16    25    1
    48    24    21    1
    49    26    25    1
    50    59    56    1
    51    38    39    1
    52    38    41    1
    53    38    29    1
    54    13    55    1
    55    13    11    2
    56    10    29    1
    57    10    11    1
    58    34    29    1
    59    34    37    1
    60    34    35    1
    61    21    22    1
    62    21    23    1
    63    25    27    1
    64    25    28    1
    65    55    56    1
    66    55    64    1
    67    29    30    1
    68    56    58    1
    69    56    57    1
    70    11    12    1
    71    66    64    1
    72    64    67    1
    73    64    65    1
    74    30    32    1
    75    30    33    1
    76    30    31    1
