@<TRIPOS>MOLECULE
2,3,4,6,7,9,10,11,13,14
 75 76 0 0 0
SMALL
GASTEIGER

@<TRIPOS>ATOM
      1 SI          9.3087    3.7305   -2.0560 Si      1  UNL1        0.0000
      2 C          10.6647    2.4059   -1.8232 C.3     1  UNL1        0.0000
      3 C          12.0982    2.4266   -1.9133 C.2     1  UNL1        0.0000
      4 C          12.5951    1.4238   -1.0483 C.2     1  UNL1        0.0000
      5 H          13.6257    1.1114   -0.9771 H       1  UNL1        0.0000
      6 C          11.5168    0.7591   -0.4173 C.2     1  UNL1        0.0000
      7 C          10.3390    1.3695   -0.8858 C.2     1  UNL1        0.0000
      8 H           9.3407    0.9842   -0.7370 H       1  UNL1        0.0000
      9 C           9.5683    4.6591   -0.4073 C.3     1  UNL1        0.0000
     10 C           9.2307    4.3681    0.9584 C.2     1  UNL1        0.0000
     11 C          10.1824    5.0150    1.7808 C.2     1  UNL1        0.0000
     12 H          10.1373    5.0847    2.8568 H       1  UNL1        0.0000
     13 C          11.1108    5.7178    0.9764 C.2     1  UNL1        0.0000
     14 C          10.7379    5.4889   -0.3608 C.2     1  UNL1        0.0000
     15 H          11.1314    6.0233   -1.2133 H       1  UNL1        0.0000
     16 C          12.9693    3.1381   -2.9382 C.3     1  UNL1        0.0000
     17 C          12.3388    2.9892   -4.3293 C.3     1  UNL1        0.0000
     18 H          11.3362    3.4025   -4.3479 H       1  UNL1        0.0000
     19 H          12.2790    1.9372   -4.5986 H       1  UNL1        0.0000
     20 H          12.9424    3.5029   -5.0751 H       1  UNL1        0.0000
     21 C          14.3740    2.5190   -2.9835 C.3     1  UNL1        0.0000
     22 H          14.9543    2.9891   -3.7753 H       1  UNL1        0.0000
     23 H          14.3240    1.4530   -3.1917 H       1  UNL1        0.0000
     24 H          14.8981    2.6754   -2.0422 H       1  UNL1        0.0000
     25 C          13.1391    4.6232   -2.5898 C.3     1  UNL1        0.0000
     26 H          12.2249    5.1703   -2.7995 H       1  UNL1        0.0000
     27 H          13.9336    5.0625   -3.1920 H       1  UNL1        0.0000
     28 H          13.4035    4.7255   -1.5312 H       1  UNL1        0.0000
     29 C          11.6303   -0.5042    0.4120 C.3     1  UNL1        0.0000
     30 C          12.9807   -0.5541    1.1377 C.3     1  UNL1        0.0000
     31 H          13.8015   -0.6626    0.4335 H       1  UNL1        0.0000
     32 H          13.0088   -1.4043    1.8162 H       1  UNL1        0.0000
     33 H          13.1382    0.3563    1.7177 H       1  UNL1        0.0000
     34 C          11.5166   -1.7103   -0.5350 C.3     1  UNL1        0.0000
     35 H          10.5521   -1.7077   -1.0374 H       1  UNL1        0.0000
     36 H          11.6186   -2.6413    0.0185 H       1  UNL1        0.0000
     37 H          12.2952   -1.6697   -1.2930 H       1  UNL1        0.0000
     38 C          10.5144   -0.5821    1.4609 C.3     1  UNL1        0.0000
     39 H          10.5868    0.2644    2.1478 H       1  UNL1        0.0000
     40 H          10.6117   -1.4999    2.0379 H       1  UNL1        0.0000
     41 H           9.5325   -0.5843    0.9935 H       1  UNL1        0.0000
     42 C           7.9480    3.7580    1.5042 C.3     1  UNL1        0.0000
     43 C           7.9546    2.2296    1.3637 C.3     1  UNL1        0.0000
     44 H           8.9090    1.8307    1.7252 H       1  UNL1        0.0000
     45 H           7.7994    1.9416    0.3284 H       1  UNL1        0.0000
     46 H           7.1485    1.7942    1.9531 H       1  UNL1        0.0000
     47 C           7.7860    4.0756    2.9979 C.3     1  UNL1        0.0000
     48 H           7.8108    5.1482    3.1737 H       1  UNL1        0.0000
     49 H           8.5700    3.5990    3.5839 H       1  UNL1        0.0000
     50 H           6.8266    3.6996    3.3486 H       1  UNL1        0.0000
     51 C           6.7464    4.3538    0.7588 C.3     1  UNL1        0.0000
     52 H           5.8192    3.9195    1.1278 H       1  UNL1        0.0000
     53 H           6.8183    4.1673   -0.3071 H       1  UNL1        0.0000
     54 H           6.7097    5.4294    0.9149 H       1  UNL1        0.0000
     55 C          12.1459    6.6993    1.4879 C.3     1  UNL1        0.0000
     56 C          12.6338    6.2912    2.8836 C.3     1  UNL1        0.0000
     57 H          11.8397    6.3827    3.6201 H       1  UNL1        0.0000
     58 H          13.4537    6.9350    3.1956 H       1  UNL1        0.0000
     59 H          12.9871    5.2592    2.8799 H       1  UNL1        0.0000
     60 C          11.4912    8.0886    1.5640 C.3     1  UNL1        0.0000
     61 H          11.1639    8.4075    0.5772 H       1  UNL1        0.0000
     62 H          12.1953    8.8219    1.9514 H       1  UNL1        0.0000
     63 H          10.6230    8.0613    2.2181 H       1  UNL1        0.0000
     64 C          13.3588    6.7657    0.5520 C.3     1  UNL1        0.0000
     65 H          13.8417    5.7873    0.4958 H       1  UNL1        0.0000
     66 H          14.0828    7.4829    0.9342 H       1  UNL1        0.0000
     67 H          13.0700    7.0831   -0.4471 H       1  UNL1        0.0000
     68 C           9.3945    5.0038   -3.4853 C.3     1  UNL1        0.0000
     69 H           9.2436    4.5171   -4.4427 H       1  UNL1        0.0000
     70 H          10.3195    5.5644   -3.5418 H       1  UNL1        0.0000
     71 H           8.5910    5.7237   -3.3606 H       1  UNL1        0.0000
     72 C           7.6588    2.8384   -2.4484 C.3     1  UNL1        0.0000
     73 H           6.8635    3.5574   -2.6131 H       1  UNL1        0.0000
     74 H           7.3236    2.1433   -1.6886 H       1  UNL1        0.0000
     75 H           7.7772    2.2742   -3.3683 H       1  UNL1        0.0000
@<TRIPOS>BOND
     1    20    17    1
     2    19    17    1
     3    69    68    1
     4    18    17    1
     5    17    16    1
     6    22    21    1
     7    70    68    1
     8    68    71    1
     9    68     1    1
    10    75    72    1
    11    27    25    1
    12    23    21    1
    13    21    16    1
    14    21    24    1
    15    16    25    1
    16    16     3    1
    17    26    25    1
    18    73    72    1
    19    25    28    1
    20    72     1    1
    21    72    74    1
    22     1     2    1
    23     1     9    1
    24     3     2    1
    25     3     4    2
    26     2     7    1
    27    37    34    1
    28    15    14    1
    29     4     5    1
    30     4     6    1
    31    35    34    1
    32     7     8    1
    33     7     6    2
    34    34    36    1
    35    34    29    1
    36    67    64    1
    37     6    29    1
    38     9    14    1
    39     9    10    1
    40    14    13    2
    41    53    51    1
    42    45    43    1
    43    29    30    1
    44    29    38    1
    45    31    30    1
    46    65    64    1
    47    64    66    1
    48    64    55    1
    49    61    60    1
    50    51    54    1
    51    51    52    1
    52    51    42    1
    53    10    42    1
    54    10    11    2
    55    13    55    1
    56    13    11    1
    57    41    38    1
    58    30    33    1
    59    30    32    1
    60    43    42    1
    61    43    44    1
    62    43    46    1
    63    38    40    1
    64    38    39    1
    65    55    60    1
    66    55    56    1
    67    42    47    1
    68    60    62    1
    69    60    63    1
    70    11    12    1
    71    59    56    1
    72    56    58    1
    73    56    57    1
    74    47    48    1
    75    47    50    1
    76    47    49    1
