@<TRIPOS>MOLECULE
2,3,4,6,7,9,10,11,13,14
 75 76 0 0 0
SMALL
GASTEIGER

@<TRIPOS>ATOM
      1 SI         -0.1283    1.1053    6.5463 Si      1  UNL1        0.0000
      2 C           1.5537    0.2149    6.5944 C.3     1  UNL1        0.0000
      3 C           2.9045    0.6091    6.8321 C.2     1  UNL1        0.0000
      4 C           3.7418   -0.4089    6.3364 C.2     1  UNL1        0.0000
      5 H           4.8154   -0.4409    6.4419 H       1  UNL1        0.0000
      6 C           2.9605   -1.4499    5.7789 C.3     1  UNL1        0.0000
      7 C           1.6074   -1.0528    5.9215 C.3     1  UNL1        0.0000
      8 H           0.7512   -1.6897    5.7490 H       1  UNL1        0.0000
      9 C          -0.0171    1.4569    4.6803 C.3     1  UNL1        0.0000
     10 C          -0.3142    0.6764    3.5243 C.2     1  UNL1        0.0000
     11 C           0.4500    1.1948    2.4565 C.2     1  UNL1        0.0000
     12 H           0.3692    0.8924    1.4232 H       1  UNL1        0.0000
     13 C           1.1969    2.3167    2.8978 C.3     1  UNL1        0.0000
     14 C           0.9224    2.4649    4.2768 C.3     1  UNL1        0.0000
     15 H           1.2290    3.3045    4.8886 H       1  UNL1        0.0000
     16 C           3.4874   -2.8450    5.4967 C.3     1  UNL1        0.0000
     17 C           4.7867   -2.7873    4.6841 C.3     1  UNL1        0.0000
     18 H           4.6141   -2.3035    3.7230 H       1  UNL1        0.0000
     19 H           5.1580   -3.7942    4.5029 H       1  UNL1        0.0000
     20 H           5.5574   -2.2355    5.2167 H       1  UNL1        0.0000
     21 C           2.4648   -3.6966    4.7383 C.3     1  UNL1        0.0000
     22 H           2.2247   -3.2407    3.7794 H       1  UNL1        0.0000
     23 H           1.5525   -3.8202    5.3176 H       1  UNL1        0.0000
     24 H           2.8771   -4.6861    4.5509 H       1  UNL1        0.0000
     25 C           3.7711   -3.5084    6.8563 C.3     1  UNL1        0.0000
     26 H           2.8635   -3.5475    7.4547 H       1  UNL1        0.0000
     27 H           4.5179   -2.9429    7.4078 H       1  UNL1        0.0000
     28 H           4.1386   -4.5226    6.7148 H       1  UNL1        0.0000
     29 C           3.3798    1.7598    7.7027 C.3     1  UNL1        0.0000
     30 C           2.9706    3.1205    7.1257 C.3     1  UNL1        0.0000
     31 H           3.3640    3.9199    7.7520 H       1  UNL1        0.0000
     32 H           1.8916    3.2184    7.0961 H       1  UNL1        0.0000
     33 H           3.3845    3.2418    6.1243 H       1  UNL1        0.0000
     34 C           2.7656    1.5822    9.0999 C.3     1  UNL1        0.0000
     35 H           3.0751    2.3933    9.7559 H       1  UNL1        0.0000
     36 H           3.0944    0.6409    9.5347 H       1  UNL1        0.0000
     37 H           1.6806    1.5690    9.0464 H       1  UNL1        0.0000
     38 C           4.9074    1.7542    7.8380 C.3     1  UNL1        0.0000
     39 H           5.2225    2.5885    8.4616 H       1  UNL1        0.0000
     40 H           5.3768    1.8621    6.8627 H       1  UNL1        0.0000
     41 H           5.2564    0.8361    8.3047 H       1  UNL1        0.0000
     42 C          -1.5292   -0.2224    3.3352 C.3     1  UNL1        0.0000
     43 C          -1.7555   -0.5478    1.8521 C.3     1  UNL1        0.0000
     44 H          -0.9207   -1.0989    1.4271 H       1  UNL1        0.0000
     45 H          -1.9019    0.3630    1.2771 H       1  UNL1        0.0000
     46 H          -2.6502   -1.1587    1.7469 H       1  UNL1        0.0000
     47 C          -1.4436   -1.5450    4.1057 C.3     1  UNL1        0.0000
     48 H          -0.5628   -2.1155    3.8133 H       1  UNL1        0.0000
     49 H          -2.3218   -2.1527    3.8931 H       1  UNL1        0.0000
     50 H          -1.4137   -1.3633    5.1733 H       1  UNL1        0.0000
     51 C          -2.7593    0.5604    3.8238 C.3     1  UNL1        0.0000
     52 H          -2.8569    1.4860    3.2618 H       1  UNL1        0.0000
     53 H          -2.6660    0.8121    4.8754 H       1  UNL1        0.0000
     54 H          -3.6640   -0.0278    3.6831 H       1  UNL1        0.0000
     55 C           1.8798    3.2929    1.9591 C.3     1  UNL1        0.0000
     56 C           0.8027    3.9047    1.0465 C.3     1  UNL1        0.0000
     57 H           0.0225    4.3712    1.6440 H       1  UNL1        0.0000
     58 H           0.3452    3.1412    0.4229 H       1  UNL1        0.0000
     59 H           1.2416    4.6605    0.3986 H       1  UNL1        0.0000
     60 C           2.9186    2.5610    1.0973 C.3     1  UNL1        0.0000
     61 H           3.7396    2.2052    1.7183 H       1  UNL1        0.0000
     62 H           3.3250    3.2375    0.3476 H       1  UNL1        0.0000
     63 H           2.4754    1.7086    0.5836 H       1  UNL1        0.0000
     64 C           2.5674    4.4244    2.7298 C.3     1  UNL1        0.0000
     65 H           3.3121    4.0271    3.4162 H       1  UNL1        0.0000
     66 H           1.8391    5.0087    3.2886 H       1  UNL1        0.0000
     67 H           3.0706    5.0911    2.0327 H       1  UNL1        0.0000
     68 C          -1.3902   -0.0815    7.3708 C.3     1  UNL1        0.0000
     69 H          -1.4502    0.1635    8.4271 H       1  UNL1        0.0000
     70 H          -1.1078   -1.1264    7.3065 H       1  UNL1        0.0000
     71 H          -2.3901    0.0252    6.9647 H       1  UNL1        0.0000
     72 C          -0.5516    2.7630    7.4157 C.3     1  UNL1        0.0000
     73 H          -0.1156    2.8375    8.4060 H       1  UNL1        0.0000
     74 H          -1.6293    2.8173    7.5393 H       1  UNL1        0.0000
     75 H          -0.2545    3.6385    6.8487 H       1  UNL1        0.0000
@<TRIPOS>BOND
     1    62    60    1
     2    59    56    1
     3    58    56    1
     4    63    60    1
     5    56    57    1
     6    56    55    1
     7    60    61    1
     8    60    55    1
     9    45    43    1
    10    12    11    1
    11    44    43    1
    12    46    43    1
    13    43    42    1
    14    55    64    1
    15    55    13    1
    16    67    64    1
    17    11    13    1
    18    11    10    2
    19    64    66    1
    20    64    65    1
    21    13    14    1
    22    52    51    1
    23    42    10    1
    24    42    51    1
    25    42    47    1
    26    10     9    1
    27    54    51    1
    28    18    17    1
    29    22    21    1
    30    48    47    1
    31    51    53    1
    32    49    47    1
    33    47    50    1
    34    14     9    1
    35    14    15    1
    36    19    17    1
    37    24    21    1
    38     9     1    1
    39    17    20    1
    40    17    16    1
    41    21    23    1
    42    21    16    1
    43    16     6    1
    44    16    25    1
    45     8     7    1
    46     6     7    1
    47     6     4    1
    48     7     2    1
    49    33    30    1
    50     4     5    1
    51     4     3    2
    52     1     2    1
    53     1    68    1
    54     1    72    1
    55     2     3    1
    56    28    25    1
    57     3    29    1
    58    75    72    1
    59    25    27    1
    60    25    26    1
    61    40    38    1
    62    71    68    1
    63    32    30    1
    64    30    29    1
    65    30    31    1
    66    70    68    1
    67    68    69    1
    68    72    74    1
    69    72    73    1
    70    29    38    1
    71    29    34    1
    72    38    41    1
    73    38    39    1
    74    37    34    1
    75    34    36    1
    76    34    35    1
