@<TRIPOS>MOLECULE
2,3,4,6,7,44,45,46,48,49
 84 85 0 0 0
SMALL
GASTEIGER

@<TRIPOS>ATOM
      1 SI          9.8565   -1.0225   13.4556 Si      1  UNL1        0.0000
      2 C           9.6134   -1.5405   11.6474 C.3     1  UNL1        0.0000
      3 C          10.4014   -2.1170   10.6026 C.2     1  UNL1        0.0000
      4 C           9.5220   -2.5672    9.5931 C.2     1  UNL1        0.0000
      5 H           9.8195   -3.1001    8.7021 H       1  UNL1        0.0000
      6 C           8.1812   -2.3397    9.9881 C.3     1  UNL1        0.0000
      7 C           8.2384   -1.6642   11.2292 C.3     1  UNL1        0.0000
      8 H           7.3899   -1.4795   11.8768 H       1  UNL1        0.0000
      9 C          11.8887   -2.4106   10.6429 C.3     1  UNL1        0.0000
     10 C          12.6598   -1.1177   10.9263 C.3     1  UNL1        0.0000
     11 H          12.4177   -0.3857   10.1557 H       1  UNL1        0.0000
     12 H          13.7321   -1.3037   10.9040 H       1  UNL1        0.0000
     13 H          12.4033   -0.7181   11.9010 H       1  UNL1        0.0000
     14 C          12.1511   -3.4534   11.7401 C.3     1  UNL1        0.0000
     15 H          11.6487   -4.3861   11.4935 H       1  UNL1        0.0000
     16 H          11.7759   -3.1126   12.6996 H       1  UNL1        0.0000
     17 H          13.2178   -3.6485   11.8274 H       1  UNL1        0.0000
     18 C          12.3889   -2.9847    9.3117 C.3     1  UNL1        0.0000
     19 H          12.1848   -2.2976    8.4943 H       1  UNL1        0.0000
     20 H          11.9216   -3.9432    9.0988 H       1  UNL1        0.0000
     21 H          13.4642   -3.1423    9.3649 H       1  UNL1        0.0000
     22 C           6.9864   -3.0593    9.3873 C.3     1  UNL1        0.0000
     23 C           7.2046   -3.3476    7.8973 C.3     1  UNL1        0.0000
     24 H           7.4521   -2.4318    7.3646 H       1  UNL1        0.0000
     25 H           6.2963   -3.7613    7.4645 H       1  UNL1        0.0000
     26 H           8.0043   -4.0690    7.7489 H       1  UNL1        0.0000
     27 C           6.8659   -4.3945   10.1456 C.3     1  UNL1        0.0000
     28 H           6.6592   -4.2172   11.1987 H       1  UNL1        0.0000
     29 H           7.7920   -4.9597   10.0708 H       1  UNL1        0.0000
     30 H           6.0590   -4.9929    9.7286 H       1  UNL1        0.0000
     31 C           5.6783   -2.2803    9.5500 C.3     1  UNL1        0.0000
     32 H           5.7025   -1.3781    8.9442 H       1  UNL1        0.0000
     33 H           5.4981   -2.0171   10.5898 H       1  UNL1        0.0000
     34 H           4.8450   -2.8922    9.2103 H       1  UNL1        0.0000
     35 C           9.0909   -2.4365   14.4999 C.3     1  UNL1        0.0000
     36 H           9.6867   -3.3432   14.4448 H       1  UNL1        0.0000
     37 H           8.0906   -2.6886   14.1643 H       1  UNL1        0.0000
     38 H           9.0255   -2.1522   15.5453 H       1  UNL1        0.0000
     39 C          11.5701   -0.7250   14.2659 C.3     1  UNL1        0.0000
     40 H          12.2616   -1.5547   14.1676 H       1  UNL1        0.0000
     41 H          11.4061   -0.5731   15.3288 H       1  UNL1        0.0000
     42 H          12.0647    0.1680   13.8966 H       1  UNL1        0.0000
     43 SI          8.6631    1.0218   13.4554 Si      1  UNL1        0.0000
     44 C           8.9061    1.5405   11.6474 C.3     1  UNL1        0.0000
     45 C           8.1181    2.1173   10.6027 C.2     1  UNL1        0.0000
     46 C           8.9976    2.5673    9.5931 C.2     1  UNL1        0.0000
     47 H           8.7000    3.1000    8.7020 H       1  UNL1        0.0000
     48 C          10.3384    2.3397    9.9880 C.3     1  UNL1        0.0000
     49 C          10.2811    1.6644   11.2293 C.3     1  UNL1        0.0000
     50 H          11.1297    1.4797   11.8769 H       1  UNL1        0.0000
     51 C           6.6307    2.4105   10.6429 C.3     1  UNL1        0.0000
     52 C           5.8595    1.1177   10.9264 C.3     1  UNL1        0.0000
     53 H           6.1015    0.3856   10.1559 H       1  UNL1        0.0000
     54 H           4.7872    1.3035   10.9041 H       1  UNL1        0.0000
     55 H           6.1161    0.7179   11.9010 H       1  UNL1        0.0000
     56 C           6.3684    3.4534   11.7400 C.3     1  UNL1        0.0000
     57 H           6.8708    4.3861   11.4934 H       1  UNL1        0.0000
     58 H           6.7435    3.1125   12.6996 H       1  UNL1        0.0000
     59 H           5.3017    3.6483   11.8272 H       1  UNL1        0.0000
     60 C           6.1306    2.9846    9.3116 C.3     1  UNL1        0.0000
     61 H           6.3346    2.2975    8.4943 H       1  UNL1        0.0000
     62 H           6.5978    3.9431    9.0987 H       1  UNL1        0.0000
     63 H           5.0553    3.1422    9.3648 H       1  UNL1        0.0000
     64 C          11.5330    3.0594    9.3873 C.3     1  UNL1        0.0000
     65 C          11.3148    3.3477    7.8973 C.3     1  UNL1        0.0000
     66 H          11.0672    2.4319    7.3645 H       1  UNL1        0.0000
     67 H          12.2230    3.7614    7.4645 H       1  UNL1        0.0000
     68 H          10.5151    4.0691    7.7490 H       1  UNL1        0.0000
     69 C          11.6534    4.3945   10.1457 C.3     1  UNL1        0.0000
     70 H          11.8601    4.2173   11.1988 H       1  UNL1        0.0000
     71 H          10.7273    4.9597   10.0708 H       1  UNL1        0.0000
     72 H          12.4603    4.9931    9.7288 H       1  UNL1        0.0000
     73 C          12.8410    2.2803    9.5499 C.3     1  UNL1        0.0000
     74 H          12.8169    1.3782    8.9440 H       1  UNL1        0.0000
     75 H          13.0213    2.0172   10.5897 H       1  UNL1        0.0000
     76 H          13.6743    2.8924    9.2104 H       1  UNL1        0.0000
     77 C           9.4283    2.4363   14.4996 C.3     1  UNL1        0.0000
     78 H           8.8327    3.3432   14.4448 H       1  UNL1        0.0000
     79 H          10.4286    2.6886   14.1642 H       1  UNL1        0.0000
     80 H           9.4939    2.1522   15.5451 H       1  UNL1        0.0000
     81 C           6.9494    0.7251   14.2659 C.3     1  UNL1        0.0000
     82 H           6.2579    1.5548   14.1677 H       1  UNL1        0.0000
     83 H           7.1133    0.5731   15.3289 H       1  UNL1        0.0000
     84 H           6.4549   -0.1678   13.8965 H       1  UNL1        0.0000
@<TRIPOS>BOND
     1    66    65    1
     2    24    23    1
     3    67    65    1
     4    25    23    1
     5    26    23    1
     6    68    65    1
     7    65    64    1
     8    23    22    1
     9    61    60    1
    10    19    18    1
    11    47    46    1
    12     5     4    1
    13    74    73    1
    14    32    31    1
    15    62    60    1
    16    20    18    1
    17    34    31    1
    18    76    73    1
    19    60    63    1
    20    60    51    1
    21    18    21    1
    22    18     9    1
    23    64    73    1
    24    64    48    1
    25    64    69    1
    26    22    31    1
    27    22     6    1
    28    22    27    1
    29    73    75    1
    30    31    33    1
    31    46    48    1
    32    46    45    2
    33     4     6    1
    34     4     3    2
    35    30    27    1
    36    72    69    1
    37    48    49    1
    38     6     7    1
    39    29    27    1
    40    71    69    1
    41    27    28    1
    42    69    70    1
    43    11    10    1
    44    53    52    1
    45     3     9    1
    46     3     2    1
    47    45    51    1
    48    45    44    1
    49    51    52    1
    50    51    56    1
    51     9    10    1
    52     9    14    1
    53    12    10    1
    54    54    52    1
    55    10    13    1
    56    52    55    1
    57     7     2    1
    58     7     8    1
    59    49    44    1
    60    49    50    1
    61    57    56    1
    62    15    14    1
    63     2     1    1
    64    44    43    1
    65    56    59    1
    66    56    58    1
    67    14    17    1
    68    14    16    1
    69    43     1    1
    70    43    81    1
    71    43    77    1
    72     1    39    1
    73     1    35    1
    74    84    81    1
    75    42    39    1
    76    79    77    1
    77    37    35    1
    78    40    39    1
    79    82    81    1
    80    39    41    1
    81    81    83    1
    82    36    35    1
    83    78    77    1
    84    77    80    1
    85    35    38    1
