@<TRIPOS>MOLECULE
3,4,5,7,8,11,13,14,16
 84 85 0 0 0
SMALL
GASTEIGER

@<TRIPOS>ATOM
      1 SI         10.5751    4.2386    7.3695 Si      1  UNL1        0.0000
      2 SI          9.2359    4.0530    9.3305 Si      1  UNL1        0.0000
      3 C          10.8014    6.0871    7.0335 C.3     1  UNL1        0.0000
      4 C          11.7832    7.0967    7.3194 C.2     1  UNL1        0.0000
      5 C          11.3964    8.2761    6.6431 C.2     1  UNL1        0.0000
      6 H          11.9844    9.1781    6.5755 H       1  UNL1        0.0000
      7 C          10.1910    8.0485    5.9431 C.2     1  UNL1        0.0000
      8 C           9.8152    6.7191    6.2033 C.2     1  UNL1        0.0000
      9 H           9.0482    6.1782    5.6670 H       1  UNL1        0.0000
     10 C           8.7737    5.8140    9.8465 C.3     1  UNL1        0.0000
     11 C           9.6739    6.4827   10.7430 C.2     1  UNL1        0.0000
     12 H          10.5085    5.9958   11.2276 H       1  UNL1        0.0000
     13 C           9.1293    7.7189   11.1323 C.2     1  UNL1        0.0000
     14 C           7.9007    7.8566   10.4493 C.2     1  UNL1        0.0000
     15 H           7.2004    8.6629   10.6024 H       1  UNL1        0.0000
     16 C           7.6673    6.7107    9.6552 C.2     1  UNL1        0.0000
     17 C           9.5571    8.9747    4.9255 C.3     1  UNL1        0.0000
     18 C           8.0283    8.8447    4.9392 C.3     1  UNL1        0.0000
     19 H           7.6381    9.0802    5.9313 H       1  UNL1        0.0000
     20 H           7.7176    7.8396    4.6624 H       1  UNL1        0.0000
     21 H           7.5902    9.5380    4.2239 H       1  UNL1        0.0000
     22 C          10.0791    8.5768    3.5343 C.3     1  UNL1        0.0000
     23 H           9.8023    7.5509    3.3027 H       1  UNL1        0.0000
     24 H          11.1634    8.6516    3.5035 H       1  UNL1        0.0000
     25 H           9.6636    9.2306    2.7704 H       1  UNL1        0.0000
     26 C           9.9344   10.4343    5.2009 C.3     1  UNL1        0.0000
     27 H           9.6860   10.7119    6.2236 H       1  UNL1        0.0000
     28 H           9.3956   11.0942    4.5241 H       1  UNL1        0.0000
     29 H          10.9986   10.5953    5.0486 H       1  UNL1        0.0000
     30 C           9.6427    8.6124   12.2427 C.3     1  UNL1        0.0000
     31 C           9.1847    8.0116   13.5828 C.3     1  UNL1        0.0000
     32 H           9.5941    7.0124   13.7119 H       1  UNL1        0.0000
     33 H           8.1000    7.9412   13.6129 H       1  UNL1        0.0000
     34 H           9.5159    8.6335   14.4117 H       1  UNL1        0.0000
     35 C           9.0770   10.0308   12.1127 C.3     1  UNL1        0.0000
     36 H           9.2813   10.4399   11.1251 H       1  UNL1        0.0000
     37 H           9.5293   10.6837   12.8565 H       1  UNL1        0.0000
     38 H           8.0019   10.0357   12.2725 H       1  UNL1        0.0000
     39 C          11.1753    8.6842   12.2282 C.3     1  UNL1        0.0000
     40 H          11.5267    9.0668   11.2680 H       1  UNL1        0.0000
     41 H          11.6155    7.7052   12.4053 H       1  UNL1        0.0000
     42 H          11.5231    9.3531   13.0130 H       1  UNL1        0.0000
     43 C          13.1010    6.9344    8.0553 C.3     1  UNL1        0.0000
     44 C          13.7697    8.2920    8.3140 C.3     1  UNL1        0.0000
     45 H          13.0957    8.9624    8.8476 H       1  UNL1        0.0000
     46 H          14.0704    8.7642    7.3823 H       1  UNL1        0.0000
     47 H          14.6642    8.1502    8.9180 H       1  UNL1        0.0000
     48 C          14.0583    6.0859    7.2066 C.3     1  UNL1        0.0000
     49 H          13.6275    5.1153    6.9929 H       1  UNL1        0.0000
     50 H          15.0051    5.9456    7.7246 H       1  UNL1        0.0000
     51 H          14.2541    6.5858    6.2608 H       1  UNL1        0.0000
     52 C          12.8543    6.2795    9.4203 C.3     1  UNL1        0.0000
     53 H          12.3699    5.3111    9.3120 H       1  UNL1        0.0000
     54 H          12.2238    6.9447   10.0206 H       1  UNL1        0.0000
     55 H          13.7987    6.1305    9.9435 H       1  UNL1        0.0000
     56 C           6.3777    6.4528    8.8968 C.3     1  UNL1        0.0000
     57 C           5.5400    7.7326    8.7638 C.3     1  UNL1        0.0000
     58 H           6.1213    8.5316    8.3030 H       1  UNL1        0.0000
     59 H           5.1846    8.0708    9.7336 H       1  UNL1        0.0000
     60 H           4.6689    7.5368    8.1410 H       1  UNL1        0.0000
     61 C           6.6992    5.9687    7.4774 C.3     1  UNL1        0.0000
     62 H           7.3049    5.0649    7.4956 H       1  UNL1        0.0000
     63 H           7.2354    6.7640    6.9479 H       1  UNL1        0.0000
     64 H           5.7791    5.7501    6.9357 H       1  UNL1        0.0000
     65 C           5.5404    5.4115    9.6530 C.3     1  UNL1        0.0000
     66 H           6.0918    4.4869    9.7737 H       1  UNL1        0.0000
     67 H           4.6158    5.2039    9.1179 H       1  UNL1        0.0000
     68 H           5.2889    5.7882   10.6418 H       1  UNL1        0.0000
     69 C          12.1160    3.1013    7.4706 C.3     1  UNL1        0.0000
     70 H          12.6820    3.0983    6.5438 H       1  UNL1        0.0000
     71 H          11.7722    2.0844    7.6369 H       1  UNL1        0.0000
     72 H          12.7956    3.3422    8.2802 H       1  UNL1        0.0000
     73 C           9.6517    3.5084    5.8507 C.3     1  UNL1        0.0000
     74 H          10.1533    3.7633    4.9215 H       1  UNL1        0.0000
     75 H           8.6241    3.8490    5.7721 H       1  UNL1        0.0000
     76 H           9.6238    2.4253    5.9181 H       1  UNL1        0.0000
     77 C          10.2607    3.3040   10.7732 C.3     1  UNL1        0.0000
     78 H           9.7405    3.4010   11.7218 H       1  UNL1        0.0000
     79 H          11.2370    3.7648   10.8867 H       1  UNL1        0.0000
     80 H          10.4266    2.2452   10.6007 H       1  UNL1        0.0000
     81 C           7.8539    2.7410    9.1143 C.3     1  UNL1        0.0000
     82 H           7.3014    2.5763   10.0346 H       1  UNL1        0.0000
     83 H           8.3243    1.7976    8.8522 H       1  UNL1        0.0000
     84 H           7.1416    2.9686    8.3294 H       1  UNL1        0.0000
@<TRIPOS>BOND
     1    25    22    1
     2    23    22    1
     3    24    22    1
     4    22    17    1
     5    21    18    1
     6    28    26    1
     7    20    18    1
     8    74    73    1
     9    17    18    1
    10    17    26    1
    11    17     7    1
    12    18    19    1
    13    29    26    1
    14    26    27    1
    15     9     8    1
    16    75    73    1
    17    73    76    1
    18    73     1    1
    19     7     8    2
    20     7     5    1
    21     8     3    1
    22    51    48    1
    23    70    69    1
    24     6     5    1
    25     5     4    2
    26    64    61    1
    27    63    61    1
    28    49    48    1
    29     3     4    1
    30     3     1    1
    31    48    50    1
    32    48    43    1
    33     4    43    1
    34     1    69    1
    35     1     2    1
    36    46    44    1
    37    69    71    1
    38    69    72    1
    39    61    62    1
    40    61    56    1
    41    43    44    1
    42    43    52    1
    43    60    57    1
    44    58    57    1
    45    44    45    1
    46    44    47    1
    47    84    81    1
    48    57    56    1
    49    57    59    1
    50    83    81    1
    51    56    65    1
    52    56    16    1
    53    81     2    1
    54    81    82    1
    55    67    65    1
    56    53    52    1
    57     2    10    1
    58     2    77    1
    59    52    55    1
    60    52    54    1
    61    65    66    1
    62    65    68    1
    63    16    10    1
    64    16    14    2
    65    10    11    1
    66    14    15    1
    67    14    13    1
    68    80    77    1
    69    11    13    2
    70    11    12    1
    71    77    79    1
    72    77    78    1
    73    36    35    1
    74    13    30    1
    75    40    39    1
    76    35    30    1
    77    35    38    1
    78    35    37    1
    79    39    30    1
    80    39    41    1
    81    39    42    1
    82    30    31    1
    83    31    33    1
    84    31    32    1
    85    31    34    1
