@<TRIPOS>MOLECULE
2,3,4,5,10,18,19,20,25
 59 64 0 0 0
SMALL
GASTEIGER

@<TRIPOS>ATOM
      1 SI          3.5317    0.7004   15.5378 Si      1  UNL1        0.0000
      2 C           2.2405    0.6748   14.1414 C.3     1  UNL1        0.0000
      3 C           1.4777   -0.4647   13.7123 C.2     1  UNL1        0.0000
      4 C           0.2840   -0.0303   13.0807 C.2     1  UNL1        0.0000
      5 C           0.2891    1.3904   13.0534 C.ar    1  UNL1        0.0000
      6 C          -0.5871    2.3244   12.4715 C.ar    1  UNL1        0.0000
      7 C          -0.3136    3.6613   12.6084 C.ar    1  UNL1        0.0000
      8 C           0.8213    4.1013   13.3099 C.ar    1  UNL1        0.0000
      9 C           1.7103    3.2179   13.8720 C.ar    1  UNL1        0.0000
     10 C           1.4774    1.8337   13.7517 C.ar    1  UNL1        0.0000
     11 C           1.8869   -1.8745   13.6909 C.ar    1  UNL1        0.0000
     12 C           3.1803   -2.2348   13.3167 C.ar    1  UNL1        0.0000
     13 C           3.5395   -3.5666   13.2255 C.ar    1  UNL1        0.0000
     14 C           2.6074   -4.5587   13.4779 C.ar    1  UNL1        0.0000
     15 C           1.3074   -4.2108   13.8058 C.ar    1  UNL1        0.0000
     16 C           0.9453   -2.8813   13.9134 C.ar    1  UNL1        0.0000
     17 C           2.2218    0.6718   16.9181 C.3     1  UNL1        0.0000
     18 C           1.4784   -0.4959   17.3018 C.2     1  UNL1        0.0000
     19 C           0.2637   -0.1110   17.9213 C.2     1  UNL1        0.0000
     20 C           0.2314    1.3079   17.9859 C.ar    1  UNL1        0.0000
     21 C          -0.6832    2.1982   18.5770 C.ar    1  UNL1        0.0000
     22 C          -0.4484    3.5460   18.4843 C.ar    1  UNL1        0.0000
     23 C           0.6837    4.0373   17.8138 C.ar    1  UNL1        0.0000
     24 C           1.6078    3.1965   17.2431 C.ar    1  UNL1        0.0000
     25 C           1.4212    1.8019   17.3222 C.ar    1  UNL1        0.0000
     26 C           1.9156   -1.8977   17.2833 C.ar    1  UNL1        0.0000
     27 C           1.0099   -2.9061   16.9503 C.ar    1  UNL1        0.0000
     28 C           1.3903   -4.2334   17.0155 C.ar    1  UNL1        0.0000
     29 C           2.6722   -4.5758   17.4127 C.ar    1  UNL1        0.0000
     30 C           3.5666   -3.5828   17.7747 C.ar    1  UNL1        0.0000
     31 C           3.1891   -2.2539   17.7231 C.ar    1  UNL1        0.0000
     32 C           4.6834    2.2291   15.4977 C.3     1  UNL1        0.0000
     33 C           4.7958   -0.7275   15.5428 C.3     1  UNL1        0.0000
     34 H          -0.4047   -0.6671   12.5376 H       1  UNL1        0.0000
     35 H           2.6065    3.5828   14.3509 H       1  UNL1        0.0000
     36 H           1.0003    5.1628   13.3946 H       1  UNL1        0.0000
     37 H          -0.9748    4.3942   12.1720 H       1  UNL1        0.0000
     38 H          -1.4574    1.9826   11.9275 H       1  UNL1        0.0000
     39 H           3.8887   -1.4607   13.0665 H       1  UNL1        0.0000
     40 H           4.5473   -3.8309   12.9409 H       1  UNL1        0.0000
     41 H           2.8881   -5.5983   13.4013 H       1  UNL1        0.0000
     42 H           0.5700   -4.9811   13.9744 H       1  UNL1        0.0000
     43 H          -0.0722   -2.6142   14.1701 H       1  UNL1        0.0000
     44 H          -0.4189   -0.7813   18.4306 H       1  UNL1        0.0000
     45 H          -1.5524    1.8140   19.0939 H       1  UNL1        0.0000
     46 H          -1.1385    4.2465   18.9289 H       1  UNL1        0.0000
     47 H           0.8318    5.1055   17.7578 H       1  UNL1        0.0000
     48 H           2.4936    3.6096   16.7845 H       1  UNL1        0.0000
     49 H           0.0053   -2.6408   16.6443 H       1  UNL1        0.0000
     50 H           0.6813   -5.0061   16.7598 H       1  UNL1        0.0000
     51 H           2.9672   -5.6133   17.4574 H       1  UNL1        0.0000
     52 H           4.5587   -3.8450   18.1119 H       1  UNL1        0.0000
     53 H           3.8664   -1.4809   18.0512 H       1  UNL1        0.0000
     54 H           5.4207   -0.6621   16.4271 H       1  UNL1        0.0000
     55 H           4.3483   -1.7130   15.5200 H       1  UNL1        0.0000
     56 H           5.4541   -0.6346   14.6853 H       1  UNL1        0.0000
     57 H           5.5594    2.0365   16.1085 H       1  UNL1        0.0000
     58 H           4.2405    3.1471   15.8610 H       1  UNL1        0.0000
     59 H           5.0287    2.4083   14.4841 H       1  UNL1        0.0000
@<TRIPOS>BOND
     1    38     6    1
     2    37     7    1
     3     6     7   ar
     4     6     5   ar
     5    34     4    1
     6     7     8   ar
     7    40    13    1
     8     5     4    1
     9     5    10   ar
    10    39    12    1
    11     4     3    2
    12    13    12   ar
    13    13    14   ar
    14     8    36    1
    15     8     9   ar
    16    12    11   ar
    17    41    14    1
    18    14    15   ar
    19    11     3    1
    20    11    16   ar
    21     3     2    1
    22    10     9   ar
    23    10     2    1
    24    15    16   ar
    25    15    42    1
    26     9    35    1
    27    16    43    1
    28     2     1    1
    29    59    32    1
    30    56    33    1
    31    32     1    1
    32    32    58    1
    33    32    57    1
    34    55    33    1
    35     1    33    1
    36     1    17    1
    37    33    54    1
    38    49    27    1
    39    50    28    1
    40    48    24    1
    41    17    18    1
    42    17    25    1
    43    27    28   ar
    44    27    26   ar
    45    28    29   ar
    46    24    25   ar
    47    24    23   ar
    48    26    18    1
    49    26    31   ar
    50    18    19    2
    51    25    20   ar
    52    29    51    1
    53    29    30   ar
    54    31    30   ar
    55    31    53    1
    56    47    23    1
    57    30    52    1
    58    23    22   ar
    59    19    20    1
    60    19    44    1
    61    20    21   ar
    62    22    21   ar
    63    22    46    1
    64    21    45    1
