@<TRIPOS>MOLECULE
2,3,18,19,21,26,27,42,43,45
 57 62 0 0 0
SMALL
GASTEIGER

@<TRIPOS>ATOM
      1 SI          3.4920    3.8989    8.1886 Si      1  UNL1        0.0000
      2 C           2.6150    2.3064    7.6613 C.3     1  UNL1        0.0000
      3 C           3.1298    0.9835    7.8269 C.ar    1  UNL1        0.0000
      4 C           4.4577    0.4976    7.8948 C.ar    1  UNL1        0.0000
      5 H           5.2869    1.1898    7.8564 H       1  UNL1        0.0000
      6 C           4.6850   -0.8443    7.9370 C.ar    1  UNL1        0.0000
      7 H           5.6972   -1.2226    7.9747 H       1  UNL1        0.0000
      8 C           3.6234   -1.7941    7.9071 C.ar    1  UNL1        0.0000
      9 C           3.8786   -3.1739    7.9554 C.ar    1  UNL1        0.0000
     10 H           4.9030   -3.5109    8.0351 H       1  UNL1        0.0000
     11 C           2.8536   -4.0845    7.9059 C.ar    1  UNL1        0.0000
     12 H           3.0641   -5.1433    7.9467 H       1  UNL1        0.0000
     13 C           1.5308   -3.6466    7.8038 C.ar    1  UNL1        0.0000
     14 H           0.7300   -4.3711    7.7688 H       1  UNL1        0.0000
     15 C           1.2491   -2.3044    7.7519 C.ar    1  UNL1        0.0000
     16 H           0.2246   -1.9666    7.6821 H       1  UNL1        0.0000
     17 C           2.2790   -1.3513    7.8035 C.ar    1  UNL1        0.0000
     18 C           2.0448    0.0540    7.7569 C.ar    1  UNL1        0.0000
     19 C           0.8558    0.8083    7.5769 C.3     1  UNL1        0.0000
     20 H          -0.1151    0.4048    7.3179 H       1  UNL1        0.0000
     21 C           1.2057    2.1755    7.4911 C.3     1  UNL1        0.0000
     22 C           0.2404    3.2445    7.0643 C.3     1  UNL1        0.0000
     23 H           0.5550    3.6673    6.1085 H       1  UNL1        0.0000
     24 H           0.1685    4.0558    7.7906 H       1  UNL1        0.0000
     25 H          -0.7532    2.8149    6.9328 H       1  UNL1        0.0000
     26 C           2.7953    3.7303    9.9410 C.3     1  UNL1        0.0000
     27 C           1.5116    4.1908   10.3685 C.ar    1  UNL1        0.0000
     28 C           0.6937    5.2489    9.9030 C.ar    1  UNL1        0.0000
     29 H           1.0064    5.8366    9.0513 H       1  UNL1        0.0000
     30 C          -0.4470    5.5674   10.5747 C.ar    1  UNL1        0.0000
     31 H          -1.0686    6.3834   10.2328 H       1  UNL1        0.0000
     32 C          -0.8527    4.8740   11.7518 C.ar    1  UNL1        0.0000
     33 C          -2.0334    5.2175   12.4294 C.ar    1  UNL1        0.0000
     34 H          -2.6495    6.0118   12.0310 H       1  UNL1        0.0000
     35 C          -2.4076    4.5611   13.5747 C.ar    1  UNL1        0.0000
     36 H          -3.3200    4.8339   14.0846 H       1  UNL1        0.0000
     37 C          -1.6103    3.5347   14.0870 C.ar    1  UNL1        0.0000
     38 H          -1.9147    3.0213   14.9876 H       1  UNL1        0.0000
     39 C          -0.4491    3.1771   13.4486 C.ar    1  UNL1        0.0000
     40 H           0.1622    2.3763   13.8407 H       1  UNL1        0.0000
     41 C          -0.0446    3.8306   12.2735 C.ar    1  UNL1        0.0000
     42 C           1.1491    3.4991   11.5676 C.ar    1  UNL1        0.0000
     43 C           2.1986    2.5900   11.8616 C.3     1  UNL1        0.0000
     44 H           2.3156    2.0354   12.7842 H       1  UNL1        0.0000
     45 C           3.2091    2.7487   10.8870 C.3     1  UNL1        0.0000
     46 C           4.5645    2.1116   10.9993 C.3     1  UNL1        0.0000
     47 H           5.3290    2.8822   11.1115 H       1  UNL1        0.0000
     48 H           4.8131    1.5066   10.1258 H       1  UNL1        0.0000
     49 H           4.5999    1.4698   11.8802 H       1  UNL1        0.0000
     50 C           5.3995    3.9183    8.0843 C.3     1  UNL1        0.0000
     51 H           5.7642    4.9112    8.3283 H       1  UNL1        0.0000
     52 H           5.7194    3.6961    7.0712 H       1  UNL1        0.0000
     53 H           5.8892    3.2194    8.7504 H       1  UNL1        0.0000
     54 C           2.9907    5.4563    7.2015 C.3     1  UNL1        0.0000
     55 H           3.2679    6.3508    7.7503 H       1  UNL1        0.0000
     56 H           1.9345    5.5181    6.9725 H       1  UNL1        0.0000
     57 H           3.5297    5.4750    6.2595 H       1  UNL1        0.0000
@<TRIPOS>BOND
     1    23    22    1
     2    57    54    1
     3    25    22    1
     4    56    54    1
     5    22    21    1
     6    22    24    1
     7    52    50    1
     8    54    55    1
     9    54     1    1
    10    20    19    1
    11    21    19    1
    12    21     2    1
    13    19    18    1
    14     2     3    1
    15     2     1    1
    16    16    15    1
    17    15    17   ar
    18    15    13   ar
    19    18    17   ar
    20    18     3   ar
    21    14    13    1
    22    17     8   ar
    23    13    11   ar
    24     3     4   ar
    25     5     4    1
    26     4     6   ar
    27    11    12    1
    28    11     9   ar
    29     8     6   ar
    30     8     9   ar
    31     6     7    1
    32     9    10    1
    33    50     1    1
    34    50    51    1
    35    50    53    1
    36     1    26    1
    37    29    28    1
    38    28    27   ar
    39    28    30   ar
    40    26    27    1
    41    26    45    1
    42    48    46    1
    43    31    30    1
    44    27    42   ar
    45    30    32   ar
    46    45    46    1
    47    45    43    1
    48    46    47    1
    49    46    49    1
    50    42    43    1
    51    42    41   ar
    52    32    41   ar
    53    32    33   ar
    54    43    44    1
    55    34    33    1
    56    41    39   ar
    57    33    35   ar
    58    39    40    1
    59    39    37   ar
    60    35    36    1
    61    35    37   ar
    62    37    38    1
