@<TRIPOS>MOLECULE
2,3,4,6,13,38,39,40,42,49
 81 84 0 0 0
SMALL
GASTEIGER

@<TRIPOS>ATOM
      1 SI          2.7965   12.4639   12.7200 Si      1  UNL1        0.0000
      2 C           1.8096   13.2995   11.3300 C.3     1  UNL1        0.0000
      3 C           1.9333   14.6629   10.9189 C.2     1  UNL1        0.0000
      4 C           0.7783   15.0699   10.2367 C.2     1  UNL1        0.0000
      5 H           0.6600   16.0265    9.7457 H       1  UNL1        0.0000
      6 C          -0.1312   13.9768   10.1948 C.3     1  UNL1        0.0000
      7 C          -1.4244   13.8458    9.6373 C.2     1  UNL1        0.0000
      8 C          -2.0540   12.6321    9.7695 C.2     1  UNL1        0.0000
      9 H          -3.0398   12.5029    9.3554 H       1  UNL1        0.0000
     10 C          -1.4794   11.5513   10.4661 C.2     1  UNL1        0.0000
     11 C          -0.2289   11.6703   11.0328 C.2     1  UNL1        0.0000
     12 H           0.2051   10.8216   11.5436 H       1  UNL1        0.0000
     13 C           0.4988   12.8699   10.8886 C.3     1  UNL1        0.0000
     14 C           3.1308   15.5574   11.0607 C.3     1  UNL1        0.0000
     15 H           3.4164   15.9436   10.0814 H       1  UNL1        0.0000
     16 H           3.9817   15.0253   11.4729 H       1  UNL1        0.0000
     17 H           2.8909   16.4165   11.6918 H       1  UNL1        0.0000
     18 C          -2.0539   15.0321    8.9430 C.3     1  UNL1        0.0000
     19 H          -1.6397   15.9396    9.4000 H       1  UNL1        0.0000
     20 C          -1.6784   15.0157    7.4580 C.3     1  UNL1        0.0000
     21 H          -2.0880   15.8877    6.9531 H       1  UNL1        0.0000
     22 H          -2.0741   14.1208    6.9822 H       1  UNL1        0.0000
     23 H          -0.5973   15.0178    7.3373 H       1  UNL1        0.0000
     24 C          -3.5703   15.0824    9.1226 C.3     1  UNL1        0.0000
     25 H          -3.9511   16.0418    8.7792 H       1  UNL1        0.0000
     26 H          -3.8231   14.9645   10.1738 H       1  UNL1        0.0000
     27 H          -4.0635   14.3012    8.5494 H       1  UNL1        0.0000
     28 C          -2.2759   10.2847   10.6614 C.3     1  UNL1        0.0000
     29 H          -1.6092    9.5296   11.0937 H       1  UNL1        0.0000
     30 C          -2.8197    9.7216    9.3481 C.3     1  UNL1        0.0000
     31 H          -2.0122    9.5820    8.6325 H       1  UNL1        0.0000
     32 H          -3.5577   10.3873    8.9095 H       1  UNL1        0.0000
     33 H          -3.2957    8.7596    9.5254 H       1  UNL1        0.0000
     34 C          -3.4054   10.5603   11.6574 C.3     1  UNL1        0.0000
     35 H          -3.0019   11.0066   12.5647 H       1  UNL1        0.0000
     36 H          -3.9234    9.6385   11.9136 H       1  UNL1        0.0000
     37 H          -4.1233   11.2570   11.2325 H       1  UNL1        0.0000
     38 C           1.6692   13.1481   14.0868 C.3     1  UNL1        0.0000
     39 C           1.6066   14.5078   14.5296 C.3     1  UNL1        0.0000
     40 C           0.3370   14.7700   15.0913 C.3     1  UNL1        0.0000
     41 H           0.0672   15.6870   15.6027 H       1  UNL1        0.0000
     42 C          -0.4274   13.5650   15.0460 C.ar    1  UNL1        0.0000
     43 C          -1.7254   13.2459   15.5099 C.ar    1  UNL1        0.0000
     44 C          -2.1228   11.9347   15.4200 C.ar    1  UNL1        0.0000
     45 H          -3.0996   11.6501   15.7796 H       1  UNL1        0.0000
     46 C          -1.3005   10.9160   14.8909 C.ar    1  UNL1        0.0000
     47 C          -0.0676   11.2308   14.3686 C.ar    1  UNL1        0.0000
     48 H           0.5837   10.4603   13.9899 H       1  UNL1        0.0000
     49 C           0.3918   12.5609   14.4157 C.ar    1  UNL1        0.0000
     50 C           2.7077   15.5302   14.5446 C.3     1  UNL1        0.0000
     51 H           3.1330   15.5995   15.5483 H       1  UNL1        0.0000
     52 H           2.3087   16.5131   14.2829 H       1  UNL1        0.0000
     53 H           3.5092   15.2750   13.8592 H       1  UNL1        0.0000
     54 C          -2.5802   14.3389   16.1093 C.3     1  UNL1        0.0000
     55 H          -2.2936   15.2825   15.6262 H       1  UNL1        0.0000
     56 C          -4.0719   14.1311   15.8567 C.3     1  UNL1        0.0000
     57 H          -4.2467   13.9602   14.7975 H       1  UNL1        0.0000
     58 H          -4.6240   15.0175   16.1611 H       1  UNL1        0.0000
     59 H          -4.4559   13.2854   16.4219 H       1  UNL1        0.0000
     60 C          -2.2917   14.4456   17.6103 C.3     1  UNL1        0.0000
     61 H          -1.2323   14.6181   17.7867 H       1  UNL1        0.0000
     62 H          -2.5753   13.5226   18.1117 H       1  UNL1        0.0000
     63 H          -2.8566   15.2657   18.0478 H       1  UNL1        0.0000
     64 C          -1.8038    9.4946   15.0114 C.3     1  UNL1        0.0000
     65 H          -2.8708    9.4939   14.7595 H       1  UNL1        0.0000
     66 C          -1.0990    8.4976   14.0963 C.3     1  UNL1        0.0000
     67 H          -1.1201    8.8399   13.0655 H       1  UNL1        0.0000
     68 H          -1.6023    7.5344   14.1467 H       1  UNL1        0.0000
     69 H          -0.0652    8.3511   14.4010 H       1  UNL1        0.0000
     70 C          -1.6584    9.0463   16.4710 C.3     1  UNL1        0.0000
     71 H          -2.0499    8.0395   16.5997 H       1  UNL1        0.0000
     72 H          -2.1973    9.7158   17.1365 H       1  UNL1        0.0000
     73 H          -0.6093    9.0510   16.7596 H       1  UNL1        0.0000
     74 C           2.8929   10.5581   12.5853 C.3     1  UNL1        0.0000
     75 H           3.7157   10.2882   11.9310 H       1  UNL1        0.0000
     76 H           2.0039   10.0859   12.1878 H       1  UNL1        0.0000
     77 H           3.0974   10.1223   13.5581 H       1  UNL1        0.0000
     78 C           4.6542   12.9012   12.8750 C.3     1  UNL1        0.0000
     79 H           5.1444   12.7775   11.9147 H       1  UNL1        0.0000
     80 H           5.1194   12.2053   13.5653 H       1  UNL1        0.0000
     81 H           4.8746   13.8981   13.2348 H       1  UNL1        0.0000
@<TRIPOS>BOND
     1    21    20    1
     2    22    20    1
     3    23    20    1
     4    20    18    1
     5    27    24    1
     6    31    30    1
     7    25    24    1
     8    32    30    1
     9    18    24    1
    10    18    19    1
    11    18     7    1
    12    24    26    1
    13    30    33    1
    14    30    28    1
    15     9     8    1
    16     7     8    2
    17     7     6    1
    18     5     4    1
    19     8    10    1
    20    15    14    1
    21     6     4    1
    22     6    13    1
    23     4     3    2
    24    10    28    1
    25    10    11    2
    26    28    29    1
    27    28    34    1
    28    13    11    1
    29    13     2    1
    30     3    14    1
    31     3     2    1
    32    11    12    1
    33    14    16    1
    34    14    17    1
    35    37    34    1
    36     2     1    1
    37    34    36    1
    38    34    35    1
    39    79    78    1
    40    75    74    1
    41    76    74    1
    42    74     1    1
    43    74    77    1
    44     1    78    1
    45     1    38    1
    46    78    81    1
    47    78    80    1
    48    67    66    1
    49    53    50    1
    50    48    47    1
    51    38    49    1
    52    38    39    1
    53    66    68    1
    54    66    69    1
    55    66    64    1
    56    52    50    1
    57    47    49   ar
    58    47    46   ar
    59    49    42   ar
    60    39    50    1
    61    39    40    1
    62    50    51    1
    63    65    64    1
    64    57    56    1
    65    46    64    1
    66    46    44   ar
    67    64    70    1
    68    42    40    1
    69    42    43   ar
    70    40    41    1
    71    44    43   ar
    72    44    45    1
    73    43    54    1
    74    55    54    1
    75    56    54    1
    76    56    58    1
    77    56    59    1
    78    54    60    1
    79    70    71    1
    80    70    73    1
    81    70    72    1
    82    60    61    1
    83    60    63    1
    84    60    62    1
