@<TRIPOS>MOLECULE
2,3,6,11,30,31,32,34,41
 57 60 0 0 0
SMALL
GASTEIGER

@<TRIPOS>ATOM
      1 SI         -1.6361    5.5995    3.9318 Si      1  UNL1        0.0000
      2 C          -1.2665    4.1444    5.0870 C.3     1  UNL1        0.0000
      3 C          -0.4697    4.0616    6.2721 C.2     1  UNL1        0.0000
      4 C          -0.3520    2.7409    6.6773 C.2     1  UNL1        0.0000
      5 H           0.1863    2.4049    7.5456 H       1  UNL1        0.0000
      6 C          -1.0701    1.9125    5.7824 C.3     1  UNL1        0.0000
      7 C          -1.2924    0.5194    5.7460 C.2     1  UNL1        0.0000
      8 C          -2.1028    0.0182    4.7540 C.2     1  UNL1        0.0000
      9 H          -2.2776   -1.0466    4.7036 H       1  UNL1        0.0000
     10 C          -2.7219    0.8373    3.7892 C.2     1  UNL1        0.0000
     11 C          -2.5226    2.2019    3.8029 C.2     1  UNL1        0.0000
     12 H          -3.0659    2.8263    3.1065 H       1  UNL1        0.0000
     13 C          -1.6900    2.7764    4.8007 C.3     1  UNL1        0.0000
     14 C           0.1244    5.2190    7.0119 C.3     1  UNL1        0.0000
     15 H          -0.5511    6.0701    7.0088 H       1  UNL1        0.0000
     16 H           1.0734    5.5239    6.5691 H       1  UNL1        0.0000
     17 H           0.3232    4.9318    8.0414 H       1  UNL1        0.0000
     18 C          -0.6481   -0.3646    6.7686 C.3     1  UNL1        0.0000
     19 H          -0.9206   -1.4043    6.6090 H       1  UNL1        0.0000
     20 H          -0.9537   -0.0680    7.7713 H       1  UNL1        0.0000
     21 H           0.4359   -0.2730    6.7079 H       1  UNL1        0.0000
     22 C          -3.5741    0.2001    2.7327 C.3     1  UNL1        0.0000
     23 H          -4.1530    0.9465    2.1949 H       1  UNL1        0.0000
     24 H          -4.2539   -0.5275    3.1717 H       1  UNL1        0.0000
     25 H          -2.9373   -0.3226    2.0186 H       1  UNL1        0.0000
     26 C          -3.4891    5.7680    3.5013 C.3     1  UNL1        0.0000
     27 H          -3.9848    6.3558    4.2667 H       1  UNL1        0.0000
     28 H          -4.0095    4.8193    3.4433 H       1  UNL1        0.0000
     29 H          -3.6225    6.2873    2.5579 H       1  UNL1        0.0000
     30 C          -0.5507    4.9848    2.4981 C.3     1  UNL1        0.0000
     31 C           0.8809    4.9776    2.5431 C.3     1  UNL1        0.0000
     32 C           1.3818    3.9581    1.6992 C.3     1  UNL1        0.0000
     33 H           2.4248    3.8102    1.4486 H       1  UNL1        0.0000
     34 C           0.2667    3.3444    1.0431 C.ar    1  UNL1        0.0000
     35 C           0.1907    2.3524    0.0409 C.ar    1  UNL1        0.0000
     36 C          -1.0523    2.0382   -0.4533 C.ar    1  UNL1        0.0000
     37 H          -1.1392    1.2845   -1.2225 H       1  UNL1        0.0000
     38 C          -2.2272    2.6847   -0.0219 C.ar    1  UNL1        0.0000
     39 C          -2.1656    3.6474    0.9585 C.ar    1  UNL1        0.0000
     40 H          -3.0581    4.1829    1.2487 H       1  UNL1        0.0000
     41 C          -0.9272    3.9765    1.5393 C.ar    1  UNL1        0.0000
     42 C           1.7455    5.9383    3.3071 C.3     1  UNL1        0.0000
     43 H           1.4876    6.9648    3.0499 H       1  UNL1        0.0000
     44 H           2.7935    5.7734    3.0648 H       1  UNL1        0.0000
     45 H           1.6266    5.8125    4.3843 H       1  UNL1        0.0000
     46 C           1.4399    1.6884   -0.4500 C.3     1  UNL1        0.0000
     47 H           1.2132    0.9726   -1.2352 H       1  UNL1        0.0000
     48 H           1.9249    1.1629    0.3730 H       1  UNL1        0.0000
     49 H           2.1385    2.4282   -0.8397 H       1  UNL1        0.0000
     50 C          -3.5306    2.3164   -0.6654 C.3     1  UNL1        0.0000
     51 H          -4.3559    2.8708   -0.2251 H       1  UNL1        0.0000
     52 H          -3.7231    1.2505   -0.5501 H       1  UNL1        0.0000
     53 H          -3.4999    2.5335   -1.7327 H       1  UNL1        0.0000
     54 C          -1.1185    7.3263    4.5497 C.3     1  UNL1        0.0000
     55 H          -1.8021    7.6589    5.3230 H       1  UNL1        0.0000
     56 H          -1.1817    8.0407    3.7356 H       1  UNL1        0.0000
     57 H          -0.1159    7.3716    4.9531 H       1  UNL1        0.0000
@<TRIPOS>BOND
     1    53    50    1
     2    47    46    1
     3    37    36    1
     4    49    46    1
     5    50    52    1
     6    50    51    1
     7    50    38    1
     8    36    38   ar
     9    36    35   ar
    10    46    35    1
    11    46    48    1
    12    38    39   ar
    13    35    34   ar
    14    39    40    1
    15    39    41   ar
    16    34    41   ar
    17    34    32    1
    18    33    32    1
    19    41    30    1
    20    32    31    1
    21    25    22    1
    22    23    22    1
    23    30    31    1
    24    30     1    1
    25    31    42    1
    26    29    26    1
    27    22    24    1
    28    22    10    1
    29    43    42    1
    30    44    42    1
    31    12    11    1
    32    42    45    1
    33    28    26    1
    34    26     1    1
    35    26    27    1
    36    56    54    1
    37    10    11    2
    38    10     8    1
    39    11    13    1
    40     1    54    1
    41     1     2    1
    42    54    57    1
    43    54    55    1
    44     9     8    1
    45     8     7    2
    46    13     2    1
    47    13     6    1
    48     2     3    1
    49     7     6    1
    50     7    18    1
    51     6     4    1
    52     3     4    2
    53     3    14    1
    54    16    14    1
    55    19    18    1
    56     4     5    1
    57    21    18    1
    58    18    20    1
    59    15    14    1
    60    14    17    1
