@<TRIPOS>MOLECULE
2,3,4,6,13,42,43,44,46,53
 81 84 0 0 0
SMALL
GASTEIGER

@<TRIPOS>ATOM
      1 SI          6.1832    7.5090    2.7423 Si      1  UNL1        0.0000
      2 C           6.7495    6.6177    4.3178 C.3     1  UNL1        0.0000
      3 C           7.9559    6.8394    5.0648 C.2     1  UNL1        0.0000
      4 C           8.1891    5.7631    5.9248 C.2     1  UNL1        0.0000
      5 H           8.9840    5.7177    6.6525 H       1  UNL1        0.0000
      6 C           7.1521    4.8063    5.7526 C.ar    1  UNL1        0.0000
      7 C           6.8746    3.5819    6.4029 C.ar    1  UNL1        0.0000
      8 C           5.7266    2.9192    6.0435 C.ar    1  UNL1        0.0000
      9 H           5.4828    1.9809    6.5157 H       1  UNL1        0.0000
     10 C           4.8228    3.4132    5.0802 C.ar    1  UNL1        0.0000
     11 C           5.0808    4.6019    4.4379 C.ar    1  UNL1        0.0000
     12 H           4.3687    5.0132    3.7417 H       1  UNL1        0.0000
     13 C           6.2490    5.3266    4.7517 C.ar    1  UNL1        0.0000
     14 C           8.8076    8.0749    5.0470 C.3     1  UNL1        0.0000
     15 H           8.1897    8.9698    5.0219 H       1  UNL1        0.0000
     16 H           9.4795    8.0845    4.1869 H       1  UNL1        0.0000
     17 H           9.4230    8.1058    5.9441 H       1  UNL1        0.0000
     18 C           7.8671    3.0560    7.4125 C.3     1  UNL1        0.0000
     19 H           8.2321    3.9104    7.9942 H       1  UNL1        0.0000
     20 C           3.6099    2.5666    4.7682 C.3     1  UNL1        0.0000
     21 H           3.2957    2.0870    5.7026 H       1  UNL1        0.0000
     22 C           4.2946    7.5591    2.4705 C.3     1  UNL1        0.0000
     23 H           3.8539    8.2569    3.1748 H       1  UNL1        0.0000
     24 H           3.7832    6.6141    2.5972 H       1  UNL1        0.0000
     25 H           4.0749    7.9240    1.4723 H       1  UNL1        0.0000
     26 C           7.2743    2.0427    8.3884 C.3     1  UNL1        0.0000
     27 H           6.3767    2.4388    8.8581 H       1  UNL1        0.0000
     28 H           7.9997    1.8172    9.1673 H       1  UNL1        0.0000
     29 H           7.0277    1.1128    7.8820 H       1  UNL1        0.0000
     30 C           9.0535    2.4373    6.6630 C.3     1  UNL1        0.0000
     31 H           9.5111    3.1612    5.9885 H       1  UNL1        0.0000
     32 H           8.7176    1.5890    6.0708 H       1  UNL1        0.0000
     33 H           9.8085    2.0938    7.3669 H       1  UNL1        0.0000
     34 C           2.4217    3.3589    4.2265 C.3     1  UNL1        0.0000
     35 H           2.2023    4.2096    4.8680 H       1  UNL1        0.0000
     36 H           1.5416    2.7205    4.1891 H       1  UNL1        0.0000
     37 H           2.6134    3.7178    3.2175 H       1  UNL1        0.0000
     38 C           4.0092    1.4628    3.7825 C.3     1  UNL1        0.0000
     39 H           4.8568    0.8989    4.1633 H       1  UNL1        0.0000
     40 H           4.2975    1.8934    2.8259 H       1  UNL1        0.0000
     41 H           3.1779    0.7807    3.6174 H       1  UNL1        0.0000
     42 C           7.1708    6.3614    1.5967 C.2     1  UNL1        0.0000
     43 C           6.8051    5.0402    1.1825 C.2     1  UNL1        0.0000
     44 C           7.9501    4.3253    0.7957 C.2     1  UNL1        0.0000
     45 H           7.9384    3.3449    0.3427 H       1  UNL1        0.0000
     46 C           9.0866    5.1700    0.9481 C.2     1  UNL1        0.0000
     47 C          10.4560    4.9859    0.6434 C.3     1  UNL1        0.0000
     48 C          11.3064    6.0398    0.8738 C.2     1  UNL1        0.0000
     49 H          12.3569    5.9239    0.6680 H       1  UNL1        0.0000
     50 C          10.8631    7.2851    1.3602 C.2     1  UNL1        0.0000
     51 C           9.5301    7.4855    1.6366 C.2     1  UNL1        0.0000
     52 H           9.1851    8.4644    1.9352 H       1  UNL1        0.0000
     53 C           8.6092    6.4359    1.4571 C.2     1  UNL1        0.0000
     54 C           5.4166    4.4900    1.0298 C.3     1  UNL1        0.0000
     55 H           5.3377    3.9518    0.0854 H       1  UNL1        0.0000
     56 H           4.6774    5.2852    1.0320 H       1  UNL1        0.0000
     57 H           5.1885    3.7820    1.8294 H       1  UNL1        0.0000
     58 C          10.9126    3.6404    0.1304 C.3     1  UNL1        0.0000
     59 H          10.1417    3.2675   -0.5541 H       1  UNL1        0.0000
     60 C          11.8568    8.3976    1.5916 C.3     1  UNL1        0.0000
     61 H          11.3085    9.2703    1.9665 H       1  UNL1        0.0000
     62 C           6.6524    9.3528    2.6090 C.3     1  UNL1        0.0000
     63 H           6.0189    9.9379    3.2676 H       1  UNL1        0.0000
     64 H           6.4756    9.6992    1.5960 H       1  UNL1        0.0000
     65 H           7.6796    9.5816    2.8584 H       1  UNL1        0.0000
     66 C          11.0233    2.6690    1.3117 C.3     1  UNL1        0.0000
     67 H          10.0744    2.5880    1.8430 H       1  UNL1        0.0000
     68 H          11.7753    3.0218    2.0140 H       1  UNL1        0.0000
     69 H          11.3097    1.6795    0.9623 H       1  UNL1        0.0000
     70 C          12.2329    3.6917   -0.6350 C.3     1  UNL1        0.0000
     71 H          12.1986    4.4511   -1.4132 H       1  UNL1        0.0000
     72 H          12.4226    2.7279   -1.1027 H       1  UNL1        0.0000
     73 H          13.0626    3.9068    0.0337 H       1  UNL1        0.0000
     74 C          12.5524    8.8023    0.2906 C.3     1  UNL1        0.0000
     75 H          11.8172    9.0966   -0.4553 H       1  UNL1        0.0000
     76 H          13.1356    7.9774   -0.1101 H       1  UNL1        0.0000
     77 H          13.2223    9.6409    0.4680 H       1  UNL1        0.0000
     78 C          12.8784    7.9848    2.6538 C.3     1  UNL1        0.0000
     79 H          12.3721    7.6358    3.5512 H       1  UNL1        0.0000
     80 H          13.5148    8.8277    2.9148 H       1  UNL1        0.0000
     81 H          13.5092    7.1787    2.2889 H       1  UNL1        0.0000
@<TRIPOS>BOND
     1    71    70    1
     2    72    70    1
     3    70    73    1
     4    70    58    1
     5    59    58    1
     6    75    74    1
     7    76    74    1
     8    55    54    1
     9    58    47    1
    10    58    66    1
    11    74    77    1
    12    74    60    1
    13    45    44    1
    14    47    48    1
    15    47    46    1
    16    49    48    1
    17    44    46    2
    18    44    43    1
    19    48    50    2
    20    46    53    1
    21    69    66    1
    22    54    56    1
    23    54    43    1
    24    54    57    1
    25    43    42    2
    26    66    67    1
    27    66    68    1
    28    50    60    1
    29    50    51    1
    30    53    42    1
    31    53    51    2
    32    25    22    1
    33    60    61    1
    34    60    78    1
    35    64    62    1
    36    42     1    1
    37    51    52    1
    38    81    78    1
    39    22    24    1
    40    22     1    1
    41    22    23    1
    42    62     1    1
    43    62    65    1
    44    62    63    1
    45    78    80    1
    46    78    79    1
    47     1     2    1
    48    40    38    1
    49    37    34    1
    50    41    38    1
    51    12    11    1
    52    38    39    1
    53    38    20    1
    54    16    14    1
    55    36    34    1
    56    34    20    1
    57    34    35    1
    58     2    13    1
    59     2     3    1
    60    11    13   ar
    61    11    10   ar
    62    13     6   ar
    63    20    10    1
    64    20    21    1
    65    15    14    1
    66    14     3    1
    67    14    17    1
    68     3     4    2
    69    10     8   ar
    70     6     4    1
    71     6     7   ar
    72     4     5    1
    73    31    30    1
    74     8     7   ar
    75     8     9    1
    76    32    30    1
    77     7    18    1
    78    30    33    1
    79    30    18    1
    80    18    19    1
    81    18    26    1
    82    29    26    1
    83    26    27    1
    84    26    28    1
