@<TRIPOS>MOLECULE
2,3,4,5,15,16,17,18,23
 57 60 0 0 0
SMALL
GASTEIGER

@<TRIPOS>ATOM
      1 SI         -4.0943    8.0420   10.8152 Si      1  UNL1        0.0000
      2 C          -3.8171    6.5378   11.9455 C.3     1  UNL1        0.0000
      3 C          -2.7276    6.3633   12.8570 C.2     1  UNL1        0.0000
      4 C          -2.5167    4.9940   13.1013 C.2     1  UNL1        0.0000
      5 C          -3.4876    4.2545   12.3687 C.3     1  UNL1        0.0000
      6 C          -3.7475    2.8662   12.2944 C.2     1  UNL1        0.0000
      7 C          -4.7850    2.4524   11.4970 C.2     1  UNL1        0.0000
      8 C          -5.5852    3.3576   10.7701 C.2     1  UNL1        0.0000
      9 C          -5.3434    4.7111   10.8341 C.2     1  UNL1        0.0000
     10 C          -4.2888    5.2042   11.6302 C.3     1  UNL1        0.0000
     11 C          -1.9628    7.4297   13.5883 C.3     1  UNL1        0.0000
     12 C          -2.8732    1.9109   13.0480 C.3     1  UNL1        0.0000
     13 C          -6.7082    2.8122    9.9394 C.3     1  UNL1        0.0000
     14 C          -5.8958    8.2866   10.2179 C.3     1  UNL1        0.0000
     15 C          -2.8841    7.4365    9.4855 C.3     1  UNL1        0.0000
     16 C          -1.4558    7.5340    9.5411 C.2     1  UNL1        0.0000
     17 C          -0.8763    6.5495    8.7177 C.2     1  UNL1        0.0000
     18 C          -1.9281    5.8150    8.0938 C.ar    1  UNL1        0.0000
     19 C          -1.9122    4.7659    7.1465 C.ar    1  UNL1        0.0000
     20 C          -3.1210    4.2883    6.7035 C.ar    1  UNL1        0.0000
     21 C          -4.3525    4.8186    7.1406 C.ar    1  UNL1        0.0000
     22 C          -4.3822    5.8388    8.0635 C.ar    1  UNL1        0.0000
     23 C          -3.1757    6.3511    8.5792 C.ar    1  UNL1        0.0000
     24 C          -0.6543    8.5680   10.2798 C.3     1  UNL1        0.0000
     25 C          -0.6013    4.2093    6.6814 C.3     1  UNL1        0.0000
     26 C          -5.6187    4.2592    6.5640 C.3     1  UNL1        0.0000
     27 C          -3.6656    9.7629   11.5318 C.3     1  UNL1        0.0000
     28 H          -1.8138    4.5913   13.8201 H       1  UNL1        0.0000
     29 H          -5.0046    1.3976   11.4160 H       1  UNL1        0.0000
     30 H          -6.0044    5.3899   10.3168 H       1  UNL1        0.0000
     31 H          -2.2956    8.4247   13.3112 H       1  UNL1        0.0000
     32 H          -0.8910    7.3269   13.3997 H       1  UNL1        0.0000
     33 H          -2.1145    7.3127   14.6627 H       1  UNL1        0.0000
     34 H          -3.2048    0.8865   12.9029 H       1  UNL1        0.0000
     35 H          -2.8826    2.1384   14.1137 H       1  UNL1        0.0000
     36 H          -1.8458    2.0003   12.6890 H       1  UNL1        0.0000
     37 H          -7.2356    3.6086    9.4210 H       1  UNL1        0.0000
     38 H          -7.4187    2.2752   10.5672 H       1  UNL1        0.0000
     39 H          -6.3213    2.1112    9.2015 H       1  UNL1        0.0000
     40 H          -6.3766    9.0488   10.8217 H       1  UNL1        0.0000
     41 H          -6.5073    7.3960   10.2874 H       1  UNL1        0.0000
     42 H          -5.9156    8.6288    9.1882 H       1  UNL1        0.0000
     43 H           0.1817    6.4574    8.5022 H       1  UNL1        0.0000
     44 H          -3.1398    3.4841    5.9820 H       1  UNL1        0.0000
     45 H          -5.3247    6.2860    8.3438 H       1  UNL1        0.0000
     46 H          -0.9762    9.5706    9.9974 H       1  UNL1        0.0000
     47 H           0.4007    8.4617   10.0303 H       1  UNL1        0.0000
     48 H          -0.7547    8.4595   11.3609 H       1  UNL1        0.0000
     49 H          -0.7536    3.4124    5.9587 H       1  UNL1        0.0000
     50 H          -0.0530    3.8075    7.5355 H       1  UNL1        0.0000
     51 H           0.0060    4.9900    6.2235 H       1  UNL1        0.0000
     52 H          -4.2317    9.9388   12.4407 H       1  UNL1        0.0000
     53 H          -3.9616   10.5239   10.8170 H       1  UNL1        0.0000
     54 H          -2.6181    9.9193   11.7533 H       1  UNL1        0.0000
     55 H          -6.4910    4.7657    6.9690 H       1  UNL1        0.0000
     56 H          -5.6966    3.1963    6.7879 H       1  UNL1        0.0000
     57 H          -5.6243    4.3713    5.4803 H       1  UNL1        0.0000
@<TRIPOS>BOND
     1    57    26    1
     2    49    25    1
     3    44    20    1
     4    51    25    1
     5    26    56    1
     6    26    55    1
     7    26    21    1
     8    25    19    1
     9    25    50    1
    10    20    21   ar
    11    20    19   ar
    12    21    22   ar
    13    19    18   ar
    14    22    45    1
    15    22    23   ar
    16    18    23   ar
    17    18    17    1
    18    43    17    1
    19    23    15    1
    20    17    16    2
    21    42    14    1
    22    39    13    1
    23    37    13    1
    24    15    16    1
    25    15     1    1
    26    16    24    1
    27    13    38    1
    28    13     8    1
    29    46    24    1
    30    47    24    1
    31    14    41    1
    32    14     1    1
    33    14    40    1
    34    24    48    1
    35    30     9    1
    36     8     9    2
    37     8     7    1
    38     1    27    1
    39     1     2    1
    40    53    27    1
    41     9    10    1
    42    29     7    1
    43     7     6    2
    44    27    54    1
    45    27    52    1
    46    10     2    1
    47    10     5    1
    48     2     3    1
    49     6     5    1
    50     6    12    1
    51     5     4    1
    52    36    12    1
    53     3     4    2
    54     3    11    1
    55    34    12    1
    56    12    35    1
    57     4    28    1
    58    31    11    1
    59    32    11    1
    60    11    33    1
