@<TRIPOS>MOLECULE
2,3,4,6,13,31,32,34,41
 57 60 0 0 0
SMALL
GASTEIGER

@<TRIPOS>ATOM
      1 SI         -8.1233    2.5639    4.1695 Si      1  UNL1        0.0000
      2 C          -8.3353    3.8599    2.7974 C.3     1  UNL1        0.0000
      3 C          -9.5078    4.6427    2.5407 C.2     1  UNL1        0.0000
      4 C          -9.1572    5.8200    1.8548 C.2     1  UNL1        0.0000
      5 H          -9.8586    6.5411    1.4534 H       1  UNL1        0.0000
      6 C          -7.7473    5.8164    1.6518 C.ar    1  UNL1        0.0000
      7 C          -6.8869    6.7353    1.0087 C.ar    1  UNL1        0.0000
      8 C          -5.5515    6.4231    0.9444 C.ar    1  UNL1        0.0000
      9 H          -4.8681    7.1095    0.4658 H       1  UNL1        0.0000
     10 C          -5.0271    5.2306    1.4852 C.ar    1  UNL1        0.0000
     11 C          -5.8517    4.3333    2.1254 C.ar    1  UNL1        0.0000
     12 H          -5.4487    3.3993    2.4894 H       1  UNL1        0.0000
     13 C          -7.2297    4.6053    2.2413 C.ar    1  UNL1        0.0000
     14 C         -10.9337    4.2950    2.8664 C.3     1  UNL1        0.0000
     15 H         -11.0751    3.2180    2.9063 H       1  UNL1        0.0000
     16 H         -11.5926    4.6980    2.0973 H       1  UNL1        0.0000
     17 H         -11.2351    4.7362    3.8224 H       1  UNL1        0.0000
     18 C          -7.4493    8.0144    0.4678 C.3     1  UNL1        0.0000
     19 H          -6.6662    8.6278    0.0305 H       1  UNL1        0.0000
     20 H          -7.9226    8.5734    1.2784 H       1  UNL1        0.0000
     21 H          -8.2050    7.8126   -0.2912 H       1  UNL1        0.0000
     22 C          -3.5547    4.9723    1.3630 C.3     1  UNL1        0.0000
     23 H          -3.2999    3.9767    1.7188 H       1  UNL1        0.0000
     24 H          -2.9982    5.7038    1.9489 H       1  UNL1        0.0000
     25 H          -3.2351    5.0652    0.3263 H       1  UNL1        0.0000
     26 C          -9.5809    1.3525    4.4238 C.3     1  UNL1        0.0000
     27 H          -9.4384    0.8043    5.3493 H       1  UNL1        0.0000
     28 H          -9.5979    0.6279    3.6162 H       1  UNL1        0.0000
     29 H         -10.5583    1.8146    4.4672 H       1  UNL1        0.0000
     30 C          -7.9113    3.8600    5.5414 C.3     1  UNL1        0.0000
     31 C          -6.7389    4.6429    5.7980 C.2     1  UNL1        0.0000
     32 C          -7.0895    5.8203    6.4836 C.2     1  UNL1        0.0000
     33 H          -6.3880    6.5413    6.8852 H       1  UNL1        0.0000
     34 C          -8.4994    5.8167    6.6868 C.ar    1  UNL1        0.0000
     35 C          -9.3599    6.7355    7.3300 C.ar    1  UNL1        0.0000
     36 C         -10.6952    6.4231    7.3944 C.ar    1  UNL1        0.0000
     37 H         -11.3785    7.1095    7.8732 H       1  UNL1        0.0000
     38 C         -11.2195    5.2306    6.8537 C.ar    1  UNL1        0.0000
     39 C         -10.3950    4.3333    6.2135 C.ar    1  UNL1        0.0000
     40 H         -10.7979    3.3993    5.8496 H       1  UNL1        0.0000
     41 C          -9.0170    4.6054    6.0975 C.ar    1  UNL1        0.0000
     42 C          -5.3129    4.2950    5.4726 C.3     1  UNL1        0.0000
     43 H          -5.1716    3.2180    5.4327 H       1  UNL1        0.0000
     44 H          -4.6541    4.6979    6.2419 H       1  UNL1        0.0000
     45 H          -5.0114    4.7363    4.5167 H       1  UNL1        0.0000
     46 C          -8.7973    8.0145    7.8712 C.3     1  UNL1        0.0000
     47 H          -9.5805    8.6277    8.3086 H       1  UNL1        0.0000
     48 H          -8.3241    8.5736    7.0607 H       1  UNL1        0.0000
     49 H          -8.0417    7.8125    8.6301 H       1  UNL1        0.0000
     50 C         -12.6920    4.9722    6.9759 C.3     1  UNL1        0.0000
     51 H         -12.9463    3.9760    6.6216 H       1  UNL1        0.0000
     52 H         -13.2482    5.7028    6.3883 H       1  UNL1        0.0000
     53 H         -13.0118    5.0669    8.0124 H       1  UNL1        0.0000
     54 C          -6.6657    1.3525    3.9152 C.3     1  UNL1        0.0000
     55 H          -6.8082    0.8044    2.9896 H       1  UNL1        0.0000
     56 H          -6.6488    0.6278    4.7227 H       1  UNL1        0.0000
     57 H          -5.6883    1.8146    3.8718 H       1  UNL1        0.0000
@<TRIPOS>BOND
     1    21    18    1
     2    19    18    1
     3    25    22    1
     4     9     8    1
     5    18     7    1
     6    18    20    1
     7     8     7   ar
     8     8    10   ar
     9     7     6   ar
    10    22    10    1
    11    22    23    1
    12    22    24    1
    13     5     4    1
    14    10    11   ar
    15     6     4    1
    16     6    13   ar
    17     4     3    2
    18    16    14    1
    19    11    13   ar
    20    11    12    1
    21    13     2    1
    22     3     2    1
    23     3    14    1
    24     2     1    1
    25    14    15    1
    26    14    17    1
    27    55    54    1
    28    28    26    1
    29    57    54    1
    30    54     1    1
    31    54    56    1
    32     1    26    1
    33     1    30    1
    34    26    29    1
    35    26    27    1
    36    45    42    1
    37    43    42    1
    38    42    31    1
    39    42    44    1
    40    30    31    1
    41    30    41    1
    42    31    32    2
    43    40    39    1
    44    41    39   ar
    45    41    34   ar
    46    39    38   ar
    47    52    50    1
    48    32    34    1
    49    32    33    1
    50    51    50    1
    51    34    35   ar
    52    38    50    1
    53    38    36   ar
    54    50    53    1
    55    48    46    1
    56    35    36   ar
    57    35    46    1
    58    36    37    1
    59    46    47    1
    60    46    49    1
