@<TRIPOS>MOLECULE
2,3,4,6,13,30,31,32,34,41
 57 60 0 0 0
SMALL
GASTEIGER

@<TRIPOS>ATOM
      1 SI         -8.0985    2.6579    4.1748 Si      1  UNL1        0.0000
      2 C          -8.2512    3.9567    2.8005 C.3     1  UNL1        0.0000
      3 C          -9.4054    4.7779    2.5436 C.3     1  UNL1        0.0000
      4 C          -9.0169    5.9183    1.8104 C.3     1  UNL1        0.0000
      5 H          -9.6950    6.6457    1.3865 H       1  UNL1        0.0000
      6 C          -7.6174    5.8377    1.5628 C.ar    1  UNL1        0.0000
      7 C          -6.7411    6.6713    0.8358 C.ar    1  UNL1        0.0000
      8 C          -5.4274    6.2837    0.7335 C.ar    1  UNL1        0.0000
      9 H          -4.7335    6.9051    0.1865 H       1  UNL1        0.0000
     10 C          -4.9428    5.0909    1.3045 C.ar    1  UNL1        0.0000
     11 C          -5.7871    4.2709    2.0177 C.ar    1  UNL1        0.0000
     12 H          -5.4265    3.3277    2.4006 H       1  UNL1        0.0000
     13 C          -7.1364    4.6337    2.1863 C.ar    1  UNL1        0.0000
     14 C         -10.8371    4.4608    2.8757 C.3     1  UNL1        0.0000
     15 H         -11.1048    3.4723    2.5035 H       1  UNL1        0.0000
     16 H         -11.4920    5.1919    2.4046 H       1  UNL1        0.0000
     17 H         -11.0226    4.4929    3.9517 H       1  UNL1        0.0000
     18 C          -7.2557    7.9356    0.2202 C.3     1  UNL1        0.0000
     19 H          -6.4611    8.4633   -0.2999 H       1  UNL1        0.0000
     20 H          -7.6582    8.5863    0.9970 H       1  UNL1        0.0000
     21 H          -8.0562    7.7187   -0.4865 H       1  UNL1        0.0000
     22 C          -3.4969    4.7378    1.1227 C.3     1  UNL1        0.0000
     23 H          -3.2782    3.7563    1.5368 H       1  UNL1        0.0000
     24 H          -2.8669    5.4742    1.6216 H       1  UNL1        0.0000
     25 H          -3.2342    4.7373    0.0658 H       1  UNL1        0.0000
     26 C          -9.5912    1.4807    4.3156 C.3     1  UNL1        0.0000
     27 H          -9.5790    0.9827    5.2794 H       1  UNL1        0.0000
     28 H          -9.5183    0.7128    3.5525 H       1  UNL1        0.0000
     29 H         -10.5538    1.9616    4.2017 H       1  UNL1        0.0000
     30 C          -7.9458    3.9567    5.5491 C.3     1  UNL1        0.0000
     31 C          -6.7916    4.7779    5.8060 C.3     1  UNL1        0.0000
     32 C          -7.1801    5.9184    6.5391 C.3     1  UNL1        0.0000
     33 H          -6.5020    6.6457    6.9630 H       1  UNL1        0.0000
     34 C          -8.5796    5.8377    6.7868 C.ar    1  UNL1        0.0000
     35 C          -9.4558    6.6713    7.5138 C.ar    1  UNL1        0.0000
     36 C         -10.7695    6.2837    7.6161 C.ar    1  UNL1        0.0000
     37 H         -11.4635    6.9051    8.1632 H       1  UNL1        0.0000
     38 C         -11.2541    5.0909    7.0451 C.ar    1  UNL1        0.0000
     39 C         -10.4099    4.2710    6.3319 C.ar    1  UNL1        0.0000
     40 H         -10.7705    3.3277    5.9491 H       1  UNL1        0.0000
     41 C          -9.0606    4.6338    6.1633 C.ar    1  UNL1        0.0000
     42 C          -5.3599    4.4608    5.4739 C.3     1  UNL1        0.0000
     43 H          -5.0922    3.4723    5.8460 H       1  UNL1        0.0000
     44 H          -4.7050    5.1919    5.9449 H       1  UNL1        0.0000
     45 H          -5.1744    4.4928    4.3979 H       1  UNL1        0.0000
     46 C          -8.9412    7.9356    8.1294 C.3     1  UNL1        0.0000
     47 H          -9.7358    8.4633    8.6496 H       1  UNL1        0.0000
     48 H          -8.5388    8.5864    7.3526 H       1  UNL1        0.0000
     49 H          -8.1408    7.7187    8.8361 H       1  UNL1        0.0000
     50 C         -12.7000    4.7378    7.2271 C.3     1  UNL1        0.0000
     51 H         -12.9188    3.7563    6.8129 H       1  UNL1        0.0000
     52 H         -13.3300    5.4742    6.7282 H       1  UNL1        0.0000
     53 H         -12.9627    4.7372    8.2840 H       1  UNL1        0.0000
     54 C          -6.6058    1.4807    4.0340 C.3     1  UNL1        0.0000
     55 H          -6.6181    0.9825    3.0703 H       1  UNL1        0.0000
     56 H          -6.6788    0.7129    4.7972 H       1  UNL1        0.0000
     57 H          -5.6433    1.9616    4.1478 H       1  UNL1        0.0000
@<TRIPOS>BOND
     1    21    18    1
     2    19    18    1
     3    25    22    1
     4     9     8    1
     5    18     7    1
     6    18    20    1
     7     8     7   ar
     8     8    10   ar
     9     7     6   ar
    10    22    10    1
    11    22    23    1
    12    22    24    1
    13    10    11   ar
    14     5     4    1
    15     6     4    1
    16     6    13   ar
    17     4     3    1
    18    11    13   ar
    19    11    12    1
    20    13     2    1
    21    16    14    1
    22    15    14    1
    23     3     2    1
    24     3    14    1
    25     2     1    1
    26    14    17    1
    27    55    54    1
    28    28    26    1
    29    54    57    1
    30    54     1    1
    31    54    56    1
    32     1    26    1
    33     1    30    1
    34    29    26    1
    35    26    27    1
    36    45    42    1
    37    42    31    1
    38    42    43    1
    39    42    44    1
    40    30    31    1
    41    30    41    1
    42    31    32    1
    43    40    39    1
    44    41    39   ar
    45    41    34   ar
    46    39    38   ar
    47    32    34    1
    48    32    33    1
    49    52    50    1
    50    34    35   ar
    51    51    50    1
    52    38    50    1
    53    38    36   ar
    54    50    53    1
    55    48    46    1
    56    35    36   ar
    57    35    46    1
    58    36    37    1
    59    46    47    1
    60    46    49    1
