@<TRIPOS>MOLECULE
1,2,3,4,9,10,11,12,13,18
 39 42 0 0 0
SMALL
GASTEIGER

@<TRIPOS>ATOM
      1 C           3.1183    2.7639    3.6732 C.2     1  UNL1        0.0000
      2 C           4.1591    3.5354    3.0896 C.3     1  UNL1        0.0000
      3 C           4.1640    3.3783    1.6961 C.2     1  UNL1        0.0000
      4 C           3.0865    2.5174    1.3492 C.ar    1  UNL1        0.0000
      5 C           2.6600    1.9707    0.1220 C.ar    1  UNL1        0.0000
      6 C           1.6385    1.0539    0.1207 C.ar    1  UNL1        0.0000
      7 C           1.0235    0.6474    1.3186 C.ar    1  UNL1        0.0000
      8 C           1.4001    1.1643    2.5351 C.ar    1  UNL1        0.0000
      9 C           2.4346    2.1209    2.5826 C.ar    1  UNL1        0.0000
     10 C           1.2721    4.3835    4.8281 C.2     1  UNL1        0.0000
     11 C           0.1005    4.0643    4.0890 C.2     1  UNL1        0.0000
     12 C          -0.3648    5.1947    3.3873 C.2     1  UNL1        0.0000
     13 C           0.4992    6.2811    3.7115 C.2     1  UNL1        0.0000
     14 C           0.4211    7.6614    3.4460 C.3     1  UNL1        0.0000
     15 C           1.3597    8.4978    3.9979 C.2     1  UNL1        0.0000
     16 C           2.3938    8.0000    4.8126 C.2     1  UNL1        0.0000
     17 C           2.4974    6.6622    5.1051 C.2     1  UNL1        0.0000
     18 C           1.5428    5.7691    4.5779 C.2     1  UNL1        0.0000
     19 C           1.5314    1.5462    6.1886 C.3     1  UNL1        0.0000
     20 C           3.8258    3.6096    6.6158 C.3     1  UNL1        0.0000
     21 SI          2.4548    3.0295    5.4276 Si      1  UNL1        0.0000
     22 H           4.9198    4.0631    3.6537 H       1  UNL1        0.0000
     23 H           4.9345    3.7282    1.0235 H       1  UNL1        0.0000
     24 H           3.1666    2.2341   -0.7970 H       1  UNL1        0.0000
     25 H           1.3086    0.6211   -0.8101 H       1  UNL1        0.0000
     26 H           0.2473   -0.1016    1.2751 H       1  UNL1        0.0000
     27 H           0.9489    0.8008    3.4482 H       1  UNL1        0.0000
     28 H          -0.4309    3.1262    4.1867 H       1  UNL1        0.0000
     29 H          -1.3224    5.2903    2.8918 H       1  UNL1        0.0000
     30 H          -0.3956    8.0567    2.8582 H       1  UNL1        0.0000
     31 H           1.2987    9.5611    3.8240 H       1  UNL1        0.0000
     32 H           3.1030    8.6971    5.2323 H       1  UNL1        0.0000
     33 H           3.2623    6.3045    5.7797 H       1  UNL1        0.0000
     34 H           0.5556    1.3827    5.7440 H       1  UNL1        0.0000
     35 H           1.3797    1.7085    7.2505 H       1  UNL1        0.0000
     36 H           2.1070    0.6333    6.0763 H       1  UNL1        0.0000
     37 H           4.4027    2.7574    6.9579 H       1  UNL1        0.0000
     38 H           3.3978    4.0866    7.4907 H       1  UNL1        0.0000
     39 H           4.5160    4.3088    6.1564 H       1  UNL1        0.0000
@<TRIPOS>BOND
     1    25     6    1
     2    24     5    1
     3     6     5   ar
     4     6     7   ar
     5     5     4   ar
     6    23     3    1
     7    26     7    1
     8     7     8   ar
     9     4     3    2
    10     4     9   ar
    11     3     2    1
    12     8     9   ar
    13     8    27    1
    14     9     1    2
    15    30    14    1
    16    29    12    1
    17     2    22    1
    18     2     1    1
    19    12    13    2
    20    12    11    1
    21    14    13    1
    22    14    15    1
    23     1    21    1
    24    13    18    1
    25    31    15    1
    26    15    16    2
    27    11    28    1
    28    11    10    2
    29    18    10    1
    30    18    17    2
    31    16    17    1
    32    16    32    1
    33    10    21    1
    34    17    33    1
    35    21    19    1
    36    21    20    1
    37    34    19    1
    38    36    19    1
    39    39    20    1
    40    19    35    1
    41    20    37    1
    42    20    38    1
