@<TRIPOS>MOLECULE
1,2,3,4,5,6,7,11,12,31
 72 75 0 0 0
SMALL
GASTEIGER

@<TRIPOS>ATOM
      1 C           4.0845    6.4563    4.1541 C.2     1  UNL1        0.0000
      2 C           4.0733   10.9596    4.3096 C.ar    1  UNL1        0.0000
      3 C           5.2298   10.7447    5.1360 C.3     1  UNL1        0.0000
      4 C           3.5584    9.2435    5.8057 C.2     1  UNL1        0.0000
      5 C           3.0390   10.0384    4.7248 C.ar    1  UNL1        0.0000
      6 C           3.1990    7.1199    3.2373 C.ar    1  UNL1        0.0000
      7 C           5.3105    6.2943    3.4620 C.3     1  UNL1        0.0000
      8 H           6.1500    5.7168    3.8331 H       1  UNL1        0.0000
      9 C           1.7566   10.1532    4.1615 C.ar    1  UNL1        0.0000
     10 H           0.9426    9.5526    4.5377 H       1  UNL1        0.0000
     11 C           3.9467    7.4440    2.0416 C.ar    1  UNL1        0.0000
     12 C           5.2788    6.9203    2.1965 C.2     1  UNL1        0.0000
     13 C           3.8118   11.8907    3.2886 C.ar    1  UNL1        0.0000
     14 H           4.5826   12.5814    2.9764 H       1  UNL1        0.0000
     15 C           2.5606   11.9282    2.7233 C.ar    1  UNL1        0.0000
     16 H           2.3448   12.6424    1.9431 H       1  UNL1        0.0000
     17 C           1.8107    7.3251    3.2626 C.ar    1  UNL1        0.0000
     18 H           1.2335    6.9793    4.1095 H       1  UNL1        0.0000
     19 C           1.5364   11.0805    3.1717 C.ar    1  UNL1        0.0000
     20 H           0.5516   11.1768    2.7399 H       1  UNL1        0.0000
     21 C           3.2946    8.0992    0.9812 C.ar    1  UNL1        0.0000
     22 H           3.8423    8.3752    0.0927 H       1  UNL1        0.0000
     23 C           1.1983    7.9100    2.1802 C.ar    1  UNL1        0.0000
     24 H           0.1279    8.0513    2.1782 H       1  UNL1        0.0000
     25 C           1.9414    8.3267    1.0656 C.ar    1  UNL1        0.0000
     26 H           1.4281    8.8066    0.2461 H       1  UNL1        0.0000
     27 SI          2.7946    7.8996    6.8820 Si      1  UNL1        0.0000
     28 SI          3.6887    5.9223    5.9125 Si      1  UNL1        0.0000
     29 SI          6.8271   11.7416    5.2261 Si      1  UNL1        0.0000
     30 SI          6.7162    6.8454    0.9769 Si      1  UNL1        0.0000
     31 C           4.8681    9.7239    6.0496 C.2     1  UNL1        0.0000
     32 H           5.4889    9.4062    6.8800 H       1  UNL1        0.0000
     33 C           3.4480    8.1644    8.6623 C.3     1  UNL1        0.0000
     34 H           3.2297    9.1643    9.0258 H       1  UNL1        0.0000
     35 H           2.9857    7.4599    9.3465 H       1  UNL1        0.0000
     36 H           4.5216    8.0185    8.7241 H       1  UNL1        0.0000
     37 C           0.8913    8.0517    7.0010 C.3     1  UNL1        0.0000
     38 H           0.5908    9.0651    7.2501 H       1  UNL1        0.0000
     39 H           0.3839    7.7736    6.0838 H       1  UNL1        0.0000
     40 H           0.5201    7.3981    7.7839 H       1  UNL1        0.0000
     41 C           2.5806    4.3640    5.9346 C.3     1  UNL1        0.0000
     42 H           3.0598    3.5278    5.4341 H       1  UNL1        0.0000
     43 H           2.3685    4.0607    6.9546 H       1  UNL1        0.0000
     44 H           1.6311    4.5400    5.4395 H       1  UNL1        0.0000
     45 C           5.3805    5.5126    6.7069 C.3     1  UNL1        0.0000
     46 H           5.8070    4.6010    6.2983 H       1  UNL1        0.0000
     47 H           6.0958    6.3164    6.5369 H       1  UNL1        0.0000
     48 H           5.2886    5.3707    7.7788 H       1  UNL1        0.0000
     49 C           8.0376   11.5212    3.7660 C.3     1  UNL1        0.0000
     50 H           8.3159   10.4776    3.6391 H       1  UNL1        0.0000
     51 H           7.6150   11.8669    2.8274 H       1  UNL1        0.0000
     52 H           8.9479   12.0860    3.9458 H       1  UNL1        0.0000
     53 C           6.3613   13.5927    5.3693 C.3     1  UNL1        0.0000
     54 H           7.2321   14.1759    5.6480 H       1  UNL1        0.0000
     55 H           5.9876   13.9939    4.4337 H       1  UNL1        0.0000
     56 H           5.5991   13.7574    6.1239 H       1  UNL1        0.0000
     57 C           7.7157   11.2172    6.8370 C.3     1  UNL1        0.0000
     58 H           8.0110   10.1730    6.8027 H       1  UNL1        0.0000
     59 H           8.6158   11.8061    6.9772 H       1  UNL1        0.0000
     60 H           7.0912   11.3651    7.7127 H       1  UNL1        0.0000
     61 C           8.3135    7.5759    1.7280 C.3     1  UNL1        0.0000
     62 H           8.2093    8.6402    1.9234 H       1  UNL1        0.0000
     63 H           8.5766    7.0903    2.6640 H       1  UNL1        0.0000
     64 H           9.1491    7.4457    1.0466 H       1  UNL1        0.0000
     65 C           6.3555    7.6757   -0.7031 C.3     1  UNL1        0.0000
     66 H           6.1628    8.7375   -0.5934 H       1  UNL1        0.0000
     67 H           7.2171    7.5650   -1.3539 H       1  UNL1        0.0000
     68 H           5.5091    7.2199   -1.2071 H       1  UNL1        0.0000
     69 C           7.0125    4.9794    0.6559 C.3     1  UNL1        0.0000
     70 H           7.2917    4.4527    1.5626 H       1  UNL1        0.0000
     71 H           6.1269    4.4962    0.2556 H       1  UNL1        0.0000
     72 H           7.8139    4.8416   -0.0615 H       1  UNL1        0.0000
@<TRIPOS>BOND
     1    67    65    1
     2    68    65    1
     3    65    66    1
     4    65    30    1
     5    72    69    1
     6    22    21    1
     7    26    25    1
     8    71    69    1
     9    69    30    1
    10    69    70    1
    11    30    61    1
    12    30    12    1
    13    21    25   ar
    14    21    11   ar
    15    64    61    1
    16    25    23   ar
    17    61    62    1
    18    61    63    1
    19    16    15    1
    20    11    12    2
    21    11     6   ar
    22    24    23    1
    23    23    17   ar
    24    12     7    1
    25    15    19   ar
    26    15    13   ar
    27    20    19    1
    28    51    49    1
    29    14    13    1
    30    19     9   ar
    31     6    17   ar
    32     6     1    2
    33    17    18    1
    34    13     2   ar
    35     7     8    1
    36     7     1    1
    37    50    49    1
    38    49    52    1
    39    49    29    1
    40     1    28    1
    41     9    10    1
    42     9     5   ar
    43     2     5   ar
    44     2     3    1
    45    55    53    1
    46     5     4    1
    47     3    29    1
    48     3    31    1
    49    29    53    1
    50    29    57    1
    51    53    54    1
    52    53    56    1
    53    42    41    1
    54    44    41    1
    55     4    31    2
    56     4    27    1
    57    28    41    1
    58    28    45    1
    59    28    27    1
    60    41    43    1
    61    31    32    1
    62    39    37    1
    63    46    45    1
    64    47    45    1
    65    45    48    1
    66    58    57    1
    67    57    59    1
    68    57    60    1
    69    27    37    1
    70    27    33    1
    71    37    38    1
    72    37    40    1
    73    33    36    1
    74    33    34    1
    75    33    35    1
