@<TRIPOS>MOLECULE
3,4,6,8,9,10,11,15,16,20
 58 60 0 0 0
SMALL
GASTEIGER

@<TRIPOS>ATOM
      1 SI          6.5606    0.0002   12.0223 Si      1  UNL1        0.0000
      2 SI          5.9963    2.1119    9.3883 Si      1  UNL1        0.0000
      3 C           6.8891    1.8587   12.1863 C.2     1  UNL1        0.0000
      4 C           7.8844    2.4879   12.9882 C.3     1  UNL1        0.0000
      5 C           8.3701    2.0583   14.3431 C.3     1  UNL1        0.0000
      6 C           8.2542    3.7091   12.3659 C.2     1  UNL1        0.0000
      7 C           9.2794    4.6810   12.8757 C.3     1  UNL1        0.0000
      8 C           7.4709    3.8563   11.1999 C.2     1  UNL1        0.0000
      9 C           6.6220    2.7249   11.0682 C.2     1  UNL1        0.0000
     10 C           7.5607   -0.1431   10.4094 C.3     1  UNL1        0.0000
     11 C           8.8781   -0.6631   10.2513 C.2     1  UNL1        0.0000
     12 C           9.4951   -1.7808   11.0578 C.3     1  UNL1        0.0000
     13 C          10.9781   -1.9812   10.7426 C.3     1  UNL1        0.0000
     14 C           8.7201   -3.0751   10.7770 C.3     1  UNL1        0.0000
     15 C           9.4306   -0.1114    9.0728 C.2     1  UNL1        0.0000
     16 C           8.4781    0.7421    8.4730 C.3     1  UNL1        0.0000
     17 C           8.6000    1.3644    7.1031 C.3     1  UNL1        0.0000
     18 C          10.0282    1.3003    6.5610 C.3     1  UNL1        0.0000
     19 C           7.6355    0.6492    6.1483 C.3     1  UNL1        0.0000
     20 C           7.3100    0.7429    9.2876 C.3     1  UNL1        0.0000
     21 C           4.7191   -0.4958   11.8894 C.3     1  UNL1        0.0000
     22 C           7.2645   -0.9896   13.4982 C.3     1  UNL1        0.0000
     23 C           4.1924    1.5203    9.1815 C.3     1  UNL1        0.0000
     24 C           6.2439    3.5816    8.1893 C.3     1  UNL1        0.0000
     25 H           7.4616    4.7376   10.5688 H       1  UNL1        0.0000
     26 H          10.3852   -0.3821    8.6450 H       1  UNL1        0.0000
     27 H           8.5009    2.9319   14.9820 H       1  UNL1        0.0000
     28 H           9.3346    1.5480   14.2820 H       1  UNL1        0.0000
     29 H           7.6496    1.3953   14.8145 H       1  UNL1        0.0000
     30 H           8.9368    5.1707   13.7901 H       1  UNL1        0.0000
     31 H           9.4763    5.4487   12.1276 H       1  UNL1        0.0000
     32 H          10.2169    4.1643   13.1003 H       1  UNL1        0.0000
     33 H           9.4126   -1.5492   12.1248 H       1  UNL1        0.0000
     34 H          11.5283   -1.0541   10.8909 H       1  UNL1        0.0000
     35 H          11.1166   -2.3205    9.7183 H       1  UNL1        0.0000
     36 H          11.3962   -2.7350   11.4063 H       1  UNL1        0.0000
     37 H           7.6657   -2.9485   11.0099 H       1  UNL1        0.0000
     38 H           9.1171   -3.8931   11.3737 H       1  UNL1        0.0000
     39 H           8.8086   -3.3390    9.7253 H       1  UNL1        0.0000
     40 H           8.3150    2.4200    7.1548 H       1  UNL1        0.0000
     41 H          10.7182    1.7748    7.2566 H       1  UNL1        0.0000
     42 H          10.0858    1.8275    5.6112 H       1  UNL1        0.0000
     43 H          10.3368    0.2703    6.3945 H       1  UNL1        0.0000
     44 H           6.6146    0.7173    6.5167 H       1  UNL1        0.0000
     45 H           7.9024   -0.4025    6.0685 H       1  UNL1        0.0000
     46 H           7.6823    1.0944    5.1571 H       1  UNL1        0.0000
     47 H           4.4025   -0.9875   12.8023 H       1  UNL1        0.0000
     48 H           4.5487   -1.1877   11.0724 H       1  UNL1        0.0000
     49 H           4.0780    0.3634   11.7409 H       1  UNL1        0.0000
     50 H           8.2883   -0.7224   13.7368 H       1  UNL1        0.0000
     51 H           7.2281   -2.0551   13.3005 H       1  UNL1        0.0000
     52 H           6.6589   -0.8105   14.3807 H       1  UNL1        0.0000
     53 H           3.8320    1.7865    8.1939 H       1  UNL1        0.0000
     54 H           3.5381    1.9952    9.9032 H       1  UNL1        0.0000
     55 H           4.0933    0.4481    9.2903 H       1  UNL1        0.0000
     56 H           6.0379    3.3016    7.1622 H       1  UNL1        0.0000
     57 H           7.2530    3.9837    8.2387 H       1  UNL1        0.0000
     58 H           5.5557    4.3816    8.4458 H       1  UNL1        0.0000
@<TRIPOS>BOND
     1    46    19    1
     2    42    18    1
     3    45    19    1
     4    19    44    1
     5    19    17    1
     6    43    18    1
     7    18    17    1
     8    18    41    1
     9    17    40    1
    10    17    16    1
    11    56    24    1
    12    24    57    1
    13    24    58    1
    14    24     2    1
    15    53    23    1
    16    16    15    1
    17    16    20    1
    18    26    15    1
    19    15    11    2
    20    23    55    1
    21    23     2    1
    22    23    54    1
    23    20     2    1
    24    20    10    1
    25     2     9    1
    26    35    13    1
    27    39    14    1
    28    11    10    1
    29    11    12    1
    30    10     1    1
    31    25     8    1
    32    13    34    1
    33    13    12    1
    34    13    36    1
    35    14    37    1
    36    14    12    1
    37    14    38    1
    38    12    33    1
    39     9     8    1
    40     9     3    2
    41    48    21    1
    42     8     6    2
    43    49    21    1
    44    21     1    1
    45    21    47    1
    46     1     3    1
    47     1    22    1
    48    31     7    1
    49     3     4    1
    50     6     7    1
    51     6     4    1
    52     7    32    1
    53     7    30    1
    54     4     5    1
    55    51    22    1
    56    22    50    1
    57    22    52    1
    58    28     5    1
    59     5    29    1
    60     5    27    1
