@<TRIPOS>MOLECULE
19,20,22,24,26,28,29,31,33,35
 36 37 0 0 0
SMALL
GASTEIGER

@<TRIPOS>ATOM
      1 SI          1.0245    5.6128   16.3671 Si      1  UNL1        0.0000
      2 C           0.3013    7.1495   15.5063 C.3     1  UNL1        0.0000
      3 H          -0.6449    7.4318   15.9562 H       1  UNL1        0.0000
      4 H           0.1256    6.9689   14.4513 H       1  UNL1        0.0000
      5 H           0.9701    8.0014   15.5874 H       1  UNL1        0.0000
      6 C           1.5468    6.0926   18.1450 C.3     1  UNL1        0.0000
      7 H           1.9968    5.2585   18.6747 H       1  UNL1        0.0000
      8 H           0.6852    6.4159   18.7199 H       1  UNL1        0.0000
      9 H           2.2656    6.9071   18.1445 H       1  UNL1        0.0000
     10 SI         -0.3296    3.6713   16.2994 Si      1  UNL1        0.0000
     11 C          -0.6123    2.8840   18.0206 C.3     1  UNL1        0.0000
     12 H          -1.2159    3.5367   18.6428 H       1  UNL1        0.0000
     13 H           0.3226    2.7101   18.5443 H       1  UNL1        0.0000
     14 H          -1.1286    1.9312   17.9461 H       1  UNL1        0.0000
     15 C          -2.0239    3.9016   15.4569 C.3     1  UNL1        0.0000
     16 H          -1.9255    4.3410   14.4699 H       1  UNL1        0.0000
     17 H          -2.6529    4.5618   16.0448 H       1  UNL1        0.0000
     18 H          -2.5496    2.9577   15.3480 H       1  UNL1        0.0000
     19 C           2.5947    5.0944   15.4445 C.2     1  UNL1        0.0000
     20 C           3.4777    4.0447   15.8682 C.3     1  UNL1        0.0000
     21 H           3.5487    3.6995   16.8934 H       1  UNL1        0.0000
     22 C           4.5124    3.8819   14.9007 C.2     1  UNL1        0.0000
     23 H           5.4219    3.3170   15.0274 H       1  UNL1        0.0000
     24 C           4.2488    4.8093   13.8697 C.2     1  UNL1        0.0000
     25 H           4.9010    5.0240   13.0298 H       1  UNL1        0.0000
     26 C           3.0807    5.5391   14.2031 C.2     1  UNL1        0.0000
     27 H           2.7003    6.3846   13.6445 H       1  UNL1        0.0000
     28 C           0.6807    2.4282   15.2875 C.2     1  UNL1        0.0000
     29 C           0.4579    1.9722   13.9811 C.2     1  UNL1        0.0000
     30 H          -0.4221    2.1658   13.3828 H       1  UNL1        0.0000
     31 C           1.5318    1.1316   13.5861 C.2     1  UNL1        0.0000
     32 H           1.5508    0.5288   12.6832 H       1  UNL1        0.0000
     33 C           2.4416    1.0268   14.6624 C.2     1  UNL1        0.0000
     34 H           3.2479    0.3156   14.7455 H       1  UNL1        0.0000
     35 C           1.9283    1.8561   15.7060 C.3     1  UNL1        0.0000
     36 H           2.2355    1.7762   16.7425 H       1  UNL1        0.0000
@<TRIPOS>BOND
     1    32    31    1
     2    25    24    1
     3    30    29    1
     4    31    29    1
     5    31    33    2
     6    27    26    1
     7    24    26    1
     8    24    22    2
     9    29    28    2
    10    26    19    2
    11     4     2    1
    12    16    15    1
    13    33    34    1
    14    33    35    1
    15    22    23    1
    16    22    20    1
    17    28    35    1
    18    28    10    1
    19    18    15    1
    20    19    20    1
    21    19     1    1
    22    15    17    1
    23    15    10    1
    24     2     5    1
    25     2     3    1
    26     2     1    1
    27    35    36    1
    28    20    21    1
    29    10     1    1
    30    10    11    1
    31     1     6    1
    32    14    11    1
    33    11    13    1
    34    11    12    1
    35     9     6    1
    36     6     7    1
    37     6     8    1
