@<TRIPOS>MOLECULE
4,5,6,7,15,16,17,18,19
 27 28 0 0 0
SMALL
GASTEIGER

@<TRIPOS>ATOM
      1 SI         -1.0765    5.0965    2.5094 Si      1  UNL1        0.0000
      2 C           0.3493    6.1520    3.1900 C.3     1  UNL1        0.0000
      3 C          -1.6607    3.7814    3.7385 C.3     1  UNL1        0.0000
      4 C          -0.8001    3.0335    4.5918 C.3     1  UNL1        0.0000
      5 C          -1.5028    1.8966    5.0508 C.2     1  UNL1        0.0000
      6 C          -2.7738    1.8949    4.4467 C.2     1  UNL1        0.0000
      7 C          -2.8642    3.0307    3.6107 C.3     1  UNL1        0.0000
      8 H           0.1558    3.3720    4.9700 H       1  UNL1        0.0000
      9 H          -1.1619    1.2053    5.8082 H       1  UNL1        0.0000
     10 H          -3.5749    1.2021    4.6616 H       1  UNL1        0.0000
     11 H          -3.7623    3.3665    3.1086 H       1  UNL1        0.0000
     12 H           0.7218    6.8271    2.4276 H       1  UNL1        0.0000
     13 H           0.0129    6.7540    4.0271 H       1  UNL1        0.0000
     14 H           1.1827    5.5474    3.5315 H       1  UNL1        0.0000
     15 C          -0.4925    3.7812    1.2804 C.3     1  UNL1        0.0000
     16 C          -1.3531    3.0333    0.4271 C.3     1  UNL1        0.0000
     17 C          -0.6505    1.8963   -0.0317 C.2     1  UNL1        0.0000
     18 C           0.6205    1.8945    0.5723 C.2     1  UNL1        0.0000
     19 C           0.7110    3.0306    1.4080 C.3     1  UNL1        0.0000
     20 C          -2.5023    6.1520    1.8286 C.3     1  UNL1        0.0000
     21 H          -2.3089    3.3720    0.0486 H       1  UNL1        0.0000
     22 H          -0.9913    1.2052   -0.7894 H       1  UNL1        0.0000
     23 H           1.4217    1.2020    0.3572 H       1  UNL1        0.0000
     24 H           1.6093    3.3665    1.9099 H       1  UNL1        0.0000
     25 H          -2.8748    6.8272    2.5910 H       1  UNL1        0.0000
     26 H          -2.1659    6.7540    0.9915 H       1  UNL1        0.0000
     27 H          -3.3357    5.5474    1.4872 H       1  UNL1        0.0000
@<TRIPOS>BOND
     1    22    17    1
     2    17    16    1
     3    17    18    2
     4    21    16    1
     5    23    18    1
     6    16    15    1
     7    18    19    1
     8    26    20    1
     9    15    19    1
    10    15     1    1
    11    19    24    1
    12    27    20    1
    13    20     1    1
    14    20    25    1
    15    12     2    1
    16     1     2    1
    17     1     3    1
    18    11     7    1
    19     2    14    1
    20     2    13    1
    21     7     3    1
    22     7     6    1
    23     3     4    1
    24     6    10    1
    25     6     5    2
    26     4     8    1
    27     4     5    1
    28     5     9    1
