@<TRIPOS>MOLECULE
3,4,7,16,17,18,19,20,30,31
 63 68 0 0 0
SMALL
GASTEIGER

@<TRIPOS>ATOM
      1 SI          5.0734    6.3066   10.5431 Si      1  UNL1        0.0000
      2 N           8.9008    9.6509    8.9611 N.pl3   1  UNL1        0.0000
      3 C           5.7979    7.9272    9.8732 C.3     1  UNL1        0.0000
      4 C           7.1998    8.2250   10.0083 C.2     1  UNL1        0.0000
      5 H           7.8023    7.9542   10.8661 H       1  UNL1        0.0000
      6 N           4.8336    4.1415    7.6646 N.pl3   1  UNL1        0.0000
      7 C           7.6230    9.1319    9.0090 C.2     1  UNL1        0.0000
      8 C           6.2581   10.2542    7.0681 C.ar    1  UNL1        0.0000
      9 H           7.0713   10.8036    6.6185 H       1  UNL1        0.0000
     10 C           4.9930   10.3795    6.5500 C.ar    1  UNL1        0.0000
     11 H           4.8305   11.0077    5.6872 H       1  UNL1        0.0000
     12 C           3.8975    9.7198    7.1294 C.ar    1  UNL1        0.0000
     13 H           2.9144    9.8690    6.7091 H       1  UNL1        0.0000
     14 C           4.0598    8.8938    8.2113 C.ar    1  UNL1        0.0000
     15 H           3.2058    8.4104    8.6608 H       1  UNL1        0.0000
     16 C           5.3447    8.7028    8.7547 C.ar    1  UNL1        0.0000
     17 C           6.4711    9.4290    8.1903 C.ar    1  UNL1        0.0000
     18 C           6.1725    5.1113    9.5528 C.2     1  UNL1        0.0000
     19 C           5.9997    4.5934    8.2170 C.2     1  UNL1        0.0000
     20 C           7.2588    4.5531    7.5497 C.2     1  UNL1        0.0000
     21 H           7.4531    4.1449    6.5649 H       1  UNL1        0.0000
     22 C           9.6738    4.8762    8.4270 C.3     1  UNL1        0.0000
     23 H          10.1654    4.6148    7.4992 H       1  UNL1        0.0000
     24 C          10.4037    5.1627    9.5596 C.2     1  UNL1        0.0000
     25 H          11.4825    5.1454    9.5222 H       1  UNL1        0.0000
     26 C           9.7674    5.4445   10.7748 C.2     1  UNL1        0.0000
     27 H          10.3700    5.6253   11.6527 H       1  UNL1        0.0000
     28 C           8.3919    5.4790   10.8749 C.2     1  UNL1        0.0000
     29 H           7.9252    5.6494   11.8336 H       1  UNL1        0.0000
     30 C           7.6076    5.2277    9.7397 C.2     1  UNL1        0.0000
     31 C           8.2718    4.8884    8.5031 C.2     1  UNL1        0.0000
     32 C           3.1836    6.2553   10.3048 C.3     1  UNL1        0.0000
     33 H           2.7606    5.3543   10.7334 H       1  UNL1        0.0000
     34 H           2.8901    6.3130    9.2639 H       1  UNL1        0.0000
     35 H           2.7402    7.0981   10.8249 H       1  UNL1        0.0000
     36 C           5.3527    6.1454   12.4319 C.3     1  UNL1        0.0000
     37 H           4.4526    6.4289   12.9662 H       1  UNL1        0.0000
     38 H           6.1508    6.7879   12.7874 H       1  UNL1        0.0000
     39 H           5.5913    5.1258   12.7155 H       1  UNL1        0.0000
     40 C           9.9936    8.7929    9.4066 C.3     1  UNL1        0.0000
     41 H           9.7506    7.7281    9.2471 H       1  UNL1        0.0000
     42 H          10.1748    8.9570   10.4759 H       1  UNL1        0.0000
     43 C          11.2006    9.2164    8.5671 C.3     1  UNL1        0.0000
     44 H          12.1357    9.1470    9.1186 H       1  UNL1        0.0000
     45 H          11.2607    8.5863    7.6798 H       1  UNL1        0.0000
     46 C          10.8485   10.6435    8.1588 C.3     1  UNL1        0.0000
     47 H          11.3998   10.9832    7.2853 H       1  UNL1        0.0000
     48 H          11.0301   11.3318    8.9853 H       1  UNL1        0.0000
     49 C           9.3528   10.5248    7.8922 C.3     1  UNL1        0.0000
     50 H           8.8342   11.4842    7.9537 H       1  UNL1        0.0000
     51 H           9.1872   10.0713    6.9056 H       1  UNL1        0.0000
     52 C           3.7410    3.6212    8.4662 C.3     1  UNL1        0.0000
     53 H           2.9195    4.3417    8.4945 H       1  UNL1        0.0000
     54 H           4.0755    3.4216    9.4872 H       1  UNL1        0.0000
     55 C           3.2832    2.3707    7.7166 C.3     1  UNL1        0.0000
     56 H           3.9184    1.5201    7.9674 H       1  UNL1        0.0000
     57 H           2.2487    2.1129    7.9322 H       1  UNL1        0.0000
     58 C           3.5089    2.7870    6.2659 C.3     1  UNL1        0.0000
     59 H           2.7233    3.4721    5.9472 H       1  UNL1        0.0000
     60 H           3.5424    1.9450    5.5781 H       1  UNL1        0.0000
     61 C           4.8456    3.5174    6.3489 C.3     1  UNL1        0.0000
     62 H           5.6708    2.7956    6.2716 H       1  UNL1        0.0000
     63 H           4.9648    4.2801    5.5752 H       1  UNL1        0.0000
@<TRIPOS>BOND
     1    63    61    1
     2    60    58    1
     3    11    10    1
     4    59    58    1
     5    58    61    1
     6    58    55    1
     7    62    61    1
     8    61     6    1
     9    10     8   ar
    10    10    12   ar
    11    21    20    1
    12     9     8    1
    13    13    12    1
    14    51    49    1
    15     8    17   ar
    16    12    14   ar
    17    47    46    1
    18    23    22    1
    19    20    19    1
    20    20    31    2
    21     6    19    1
    22     6    52    1
    23    45    43    1
    24    55    57    1
    25    55    56    1
    26    55    52    1
    27    49    50    1
    28    49    46    1
    29    49     2    1
    30    46    43    1
    31    46    48    1
    32    17    16   ar
    33    17     7    1
    34    14    15    1
    35    14    16   ar
    36    19    18    2
    37    22    31    1
    38    22    24    1
    39    52    53    1
    40    52    54    1
    41    31    30    1
    42    43    44    1
    43    43    40    1
    44    16     3    1
    45     2     7    1
    46     2    40    1
    47     7     4    2
    48    41    40    1
    49    34    32    1
    50    40    42    1
    51    25    24    1
    52    18    30    1
    53    18     1    1
    54    24    26    2
    55    30    28    2
    56     3     4    1
    57     3     1    1
    58     4     5    1
    59    32     1    1
    60    32    33    1
    61    32    35    1
    62     1    36    1
    63    26    28    1
    64    26    27    1
    65    28    29    1
    66    36    39    1
    67    36    38    1
    68    36    37    1
