@<TRIPOS>MOLECULE
4,5,7,16,17,18,19,21,30,31
 47 50 0 0 0
SMALL
GASTEIGER

@<TRIPOS>ATOM
      1 SI          5.4197   11.4055   -8.9656 Si      1  UNL1        0.0000
      2 O           5.1442   13.0838   -3.8639 O.2     1  UNL1        0.0000
      3 O           0.5456   10.4621   -6.9115 O.2     1  UNL1        0.0000
      4 C           5.8977   11.6674   -7.1561 C.3     1  UNL1        0.0000
      5 C           5.2745   12.6720   -6.3366 C.2     1  UNL1        0.0000
      6 H           4.8463   13.5907   -6.7217 H       1  UNL1        0.0000
      7 C           5.4824   12.3763   -4.9794 C.2     1  UNL1        0.0000
      8 C           6.6692   10.3965   -3.8018 C.2     1  UNL1        0.0000
      9 H           6.5035   10.7606   -2.7976 H       1  UNL1        0.0000
     10 C           7.3381    9.2243   -4.0437 C.2     1  UNL1        0.0000
     11 H           7.7066    8.6343   -3.2189 H       1  UNL1        0.0000
     12 C           7.5597    8.7681   -5.3571 C.2     1  UNL1        0.0000
     13 H           8.0927    7.8396   -5.4990 H       1  UNL1        0.0000
     14 C           7.1288    9.4754   -6.4508 C.2     1  UNL1        0.0000
     15 H           7.3620    9.1374   -7.4515 H       1  UNL1        0.0000
     16 C           6.4352   10.6902   -6.2568 C.3     1  UNL1        0.0000
     17 C           6.1937   11.1385   -4.8986 C.3     1  UNL1        0.0000
     18 C           3.8353   10.4752   -8.5215 C.3     1  UNL1        0.0000
     19 C           2.6530   11.1655   -8.0794 C.2     1  UNL1        0.0000
     20 H           2.4068   12.1850   -8.3545 H       1  UNL1        0.0000
     21 C           1.7957   10.2698   -7.4205 C.2     1  UNL1        0.0000
     22 C           2.0271    7.7545   -6.8499 C.2     1  UNL1        0.0000
     23 H           1.0581    7.6689   -6.3786 H       1  UNL1        0.0000
     24 C           2.8740    6.6819   -6.9604 C.2     1  UNL1        0.0000
     25 H           2.5830    5.7219   -6.5629 H       1  UNL1        0.0000
     26 C           4.1282    6.8056   -7.5876 C.2     1  UNL1        0.0000
     27 H           4.7630    5.9342   -7.6511 H       1  UNL1        0.0000
     28 C           4.5546    7.9936   -8.1253 C.2     1  UNL1        0.0000
     29 H           5.4978    8.0484   -8.6519 H       1  UNL1        0.0000
     30 C           3.7189    9.1293   -8.0427 C.3     1  UNL1        0.0000
     31 C           2.4395    8.9941   -7.3717 C.3     1  UNL1        0.0000
     32 C           5.0103   13.0727   -9.8012 C.3     1  UNL1        0.0000
     33 H           5.9110   13.6603   -9.9416 H       1  UNL1        0.0000
     34 H           4.3147   13.6706   -9.2218 H       1  UNL1        0.0000
     35 H           4.5700   12.9117  -10.7792 H       1  UNL1        0.0000
     36 C           6.6857   10.4901  -10.0541 C.3     1  UNL1        0.0000
     37 H           6.3352   10.4534  -11.0799 H       1  UNL1        0.0000
     38 H           6.8720    9.4714   -9.7370 H       1  UNL1        0.0000
     39 H           7.6343   11.0163  -10.0482 H       1  UNL1        0.0000
     40 C           4.4600   14.3003   -4.0755 C.3     1  UNL1        0.0000
     41 H           4.2770   14.7132   -3.0855 H       1  UNL1        0.0000
     42 H           3.5034   14.1286   -4.5814 H       1  UNL1        0.0000
     43 H           5.0716   14.9998   -4.6565 H       1  UNL1        0.0000
     44 C           0.0127   11.7638   -7.0301 C.3     1  UNL1        0.0000
     45 H          -0.9725   11.7235   -6.5699 H       1  UNL1        0.0000
     46 H          -0.0862   12.0541   -8.0821 H       1  UNL1        0.0000
     47 H           0.6347   12.4914   -6.4969 H       1  UNL1        0.0000
@<TRIPOS>BOND
     1    37    36    1
     2    35    32    1
     3    36    39    1
     4    36    38    1
     5    36     1    1
     6    33    32    1
     7    32    34    1
     8    32     1    1
     9     1    18    1
    10     1     4    1
    11    29    28    1
    12    18    19    1
    13    18    30    1
    14    20    19    1
    15    28    30    1
    16    28    26    2
    17    46    44    1
    18    19    21    2
    19    30    31    1
    20    27    26    1
    21    26    24    1
    22    15    14    1
    23    21    31    1
    24    21     3    1
    25    31    22    1
    26     4     5    1
    27     4    16    1
    28    44     3    1
    29    44    45    1
    30    44    47    1
    31    24    22    2
    32    24    25    1
    33    22    23    1
    34     6     5    1
    35    14    16    1
    36    14    12    2
    37     5     7    2
    38    16    17    1
    39    13    12    1
    40    12    10    1
    41     7    17    1
    42     7     2    1
    43    17     8    1
    44    43    40    1
    45    42    40    1
    46    40     2    1
    47    40    41    1
    48    10     8    2
    49    10    11    1
    50     8     9    1
