@<TRIPOS>MOLECULE
1,2,3,5,7,9,10,11,13,14
 56 58 0 0 0
SMALL
GASTEIGER

@<TRIPOS>ATOM
      1 C           7.3186    6.9676    3.1269 C.3     1  UNL1        0.0000
      2 C           7.3758    7.7345    1.9042 C.3     1  UNL1        0.0000
      3 C           8.3488    7.1203    1.0781 C.3     1  UNL1        0.0000
      4 H           8.6047    7.4266    0.0709 H       1  UNL1        0.0000
      5 C           8.8335    5.9646    1.7163 C.2     1  UNL1        0.0000
      6 H           9.5264    5.2500    1.2925 H       1  UNL1        0.0000
      7 C           8.2245    5.8783    2.9748 C.2     1  UNL1        0.0000
      8 H           8.3381    5.0598    3.6766 H       1  UNL1        0.0000
      9 C           8.3715   10.1792    4.1222 C.3     1  UNL1        0.0000
     10 C           8.2481   10.2457    2.6926 C.3     1  UNL1        0.0000
     11 C           9.5636   10.4017    2.1686 C.3     1  UNL1        0.0000
     12 H           9.7986   10.5441    1.1201 H       1  UNL1        0.0000
     13 C          10.4852   10.5069    3.2394 C.2     1  UNL1        0.0000
     14 C           9.7451   10.3565    4.4329 C.2     1  UNL1        0.0000
     15 H          10.1334   10.4711    5.4373 H       1  UNL1        0.0000
     16 C          11.9498   10.8912    3.1965 C.3     1  UNL1        0.0000
     17 C          12.7405    9.9991    4.1655 C.3     1  UNL1        0.0000
     18 H          13.8042   10.2124    4.0861 H       1  UNL1        0.0000
     19 H          12.5822    8.9454    3.9324 H       1  UNL1        0.0000
     20 H          12.4377   10.1745    5.1957 H       1  UNL1        0.0000
     21 C          12.5236   10.7537    1.7834 C.3     1  UNL1        0.0000
     22 H          13.5835   10.9985    1.7899 H       1  UNL1        0.0000
     23 H          12.0252   11.4348    1.0970 H       1  UNL1        0.0000
     24 H          12.4086    9.7346    1.4218 H       1  UNL1        0.0000
     25 C          12.0673   12.3585    3.6431 C.3     1  UNL1        0.0000
     26 H          13.1089   12.6714    3.6326 H       1  UNL1        0.0000
     27 H          11.6766   12.4878    4.6494 H       1  UNL1        0.0000
     28 H          11.5042   13.0041    2.9728 H       1  UNL1        0.0000
     29 SI          6.1221    7.1378    4.5594 Si      1  UNL1        0.0000
     30 C           4.3275    6.7521    4.0511 C.3     1  UNL1        0.0000
     31 H           4.1899    5.6864    3.9065 H       1  UNL1        0.0000
     32 H           4.0517    7.2474    3.1267 H       1  UNL1        0.0000
     33 H           3.6346    7.0748    4.8205 H       1  UNL1        0.0000
     34 C           6.6781    6.0799    6.0402 C.3     1  UNL1        0.0000
     35 H           7.7316    6.2292    6.2617 H       1  UNL1        0.0000
     36 H           6.5233    5.0225    5.8522 H       1  UNL1        0.0000
     37 H           6.1137    6.3387    6.9304 H       1  UNL1        0.0000
     38 O           6.1102    8.7242    4.9918 O.3     1  UNL1        0.0000
     39 SI          7.0459    9.9968    5.4359 Si      1  UNL1        0.0000
     40 C           5.8731   11.4938    5.5146 C.3     1  UNL1        0.0000
     41 H           6.3570   12.3345    5.9988 H       1  UNL1        0.0000
     42 H           4.9826   11.2511    6.0837 H       1  UNL1        0.0000
     43 H           5.5595   11.8186    4.5292 H       1  UNL1        0.0000
     44 C           7.8456    9.6286    7.1227 C.3     1  UNL1        0.0000
     45 H           8.3377   10.5046    7.5325 H       1  UNL1        0.0000
     46 H           8.5842    8.8346    7.0428 H       1  UNL1        0.0000
     47 H           7.0966    9.3107    7.8411 H       1  UNL1        0.0000
     48 SI          6.8204    9.5318    1.6641 Si      1  UNL1        0.0000
     49 C           7.0469   10.0391   -0.1662 C.3     1  UNL1        0.0000
     50 H           8.0392    9.8142   -0.5423 H       1  UNL1        0.0000
     51 H           6.8812   11.1035   -0.2919 H       1  UNL1        0.0000
     52 H           6.3321    9.5220   -0.7966 H       1  UNL1        0.0000
     53 C           5.0472    9.9829    2.1787 C.3     1  UNL1        0.0000
     54 H           4.8463    9.7207    3.2088 H       1  UNL1        0.0000
     55 H           4.3298    9.4665    1.5496 H       1  UNL1        0.0000
     56 H           4.8775   11.0475    2.0581 H       1  UNL1        0.0000
@<TRIPOS>BOND
     1    52    49    1
     2    50    49    1
     3    51    49    1
     4    49    48    1
     5     4     3    1
     6     3     5    1
     7     3     2    1
     8    23    21    1
     9    12    11    1
    10     6     5    1
    11    24    21    1
    12    55    53    1
    13    48     2    1
    14    48    53    1
    15    48    10    1
    16     5     7    2
    17    21    22    1
    18    21    16    1
    19     2     1    1
    20    56    53    1
    21    11    10    1
    22    11    13    1
    23    53    54    1
    24    10     9    1
    25    28    25    1
    26     7     1    1
    27     7     8    1
    28    32    30    1
    29     1    29    1
    30    16    13    1
    31    16    25    1
    32    16    17    1
    33    13    14    2
    34    26    25    1
    35    25    27    1
    36    31    30    1
    37    19    17    1
    38    30    29    1
    39    30    33    1
    40    18    17    1
    41     9    14    1
    42     9    39    1
    43    17    20    1
    44    14    15    1
    45    43    40    1
    46    29    38    1
    47    29    34    1
    48    38    39    1
    49    39    40    1
    50    39    44    1
    51    40    41    1
    52    40    42    1
    53    36    34    1
    54    34    35    1
    55    34    37    1
    56    46    44    1
    57    44    45    1
    58    44    47    1
