@<TRIPOS>MOLECULE
1,2,3,4,5,23,24,25,26,27
 66 67 0 0 0
SMALL
GASTEIGER

@<TRIPOS>ATOM
      1 C           3.2906    6.0497    8.0317 C.3     1  UNL1        0.0000
      2 C           2.2678    5.8420    9.0199 C.3     1  UNL1        0.0000
      3 C           1.0402    6.3142    8.5085 C.3     1  UNL1        0.0000
      4 C           1.2839    6.8811    7.2312 C.2     1  UNL1        0.0000
      5 C           2.6495    6.7190    6.9347 C.2     1  UNL1        0.0000
      6 SI          5.1352    6.2198    8.3616 Si      1  UNL1        0.0000
      7 C           2.5270    5.6360   10.4812 C.3     1  UNL1        0.0000
      8 H           2.8849    6.5778   10.9074 H       1  UNL1        0.0000
      9 H           3.2891    4.8840   10.6497 H       1  UNL1        0.0000
     10 H           1.6203    5.3616   11.0156 H       1  UNL1        0.0000
     11 C          -0.2442    6.4191    9.2801 C.3     1  UNL1        0.0000
     12 H          -0.3737    5.5746    9.9567 H       1  UNL1        0.0000
     13 H          -1.1040    6.4562    8.6135 H       1  UNL1        0.0000
     14 H          -0.2462    7.3325    9.8804 H       1  UNL1        0.0000
     15 C           0.3239    7.6941    6.4151 C.3     1  UNL1        0.0000
     16 H           0.5554    8.7558    6.5293 H       1  UNL1        0.0000
     17 H          -0.7038    7.5396    6.7355 H       1  UNL1        0.0000
     18 H           0.3966    7.4528    5.3542 H       1  UNL1        0.0000
     19 C           3.3314    7.4434    5.8125 C.3     1  UNL1        0.0000
     20 H           2.7031    7.4855    4.9243 H       1  UNL1        0.0000
     21 H           4.2786    6.9866    5.5488 H       1  UNL1        0.0000
     22 H           3.5276    8.4733    6.1211 H       1  UNL1        0.0000
     23 C           3.2181    2.8352    8.5674 C.3     1  UNL1        0.0000
     24 C           1.8406    2.6066    8.8910 C.2     1  UNL1        0.0000
     25 C           1.1927    2.0473    7.7713 C.2     1  UNL1        0.0000
     26 C           2.1383    1.9345    6.7216 C.3     1  UNL1        0.0000
     27 C           3.3702    2.4425    7.1928 C.3     1  UNL1        0.0000
     28 C           1.1753    2.6444   10.2360 C.3     1  UNL1        0.0000
     29 H           0.2422    3.2118   10.1989 H       1  UNL1        0.0000
     30 H           1.8173    3.0718   10.9951 H       1  UNL1        0.0000
     31 H           0.9215    1.6259   10.5415 H       1  UNL1        0.0000
     32 SI          4.6639    2.5891    9.7522 Si      1  UNL1        0.0000
     33 C          -0.1613    1.4009    7.7997 C.3     1  UNL1        0.0000
     34 H          -0.0821    0.4198    8.2767 H       1  UNL1        0.0000
     35 H          -0.5539    1.2530    6.7963 H       1  UNL1        0.0000
     36 H          -0.8785    1.9885    8.3707 H       1  UNL1        0.0000
     37 C           1.9076    1.1668    5.4522 C.3     1  UNL1        0.0000
     38 H           2.7658    1.2338    4.7876 H       1  UNL1        0.0000
     39 H           1.0236    1.5186    4.9180 H       1  UNL1        0.0000
     40 H           1.7511    0.1125    5.6930 H       1  UNL1        0.0000
     41 C           4.6736    2.3003    6.4611 C.3     1  UNL1        0.0000
     42 H           5.0059    1.2606    6.4988 H       1  UNL1        0.0000
     43 H           5.4419    2.9190    6.9153 H       1  UNL1        0.0000
     44 H           4.5771    2.5753    5.4106 H       1  UNL1        0.0000
     45 C           5.9438    5.2554    9.8129 C.3     1  UNL1        0.0000
     46 H           6.9183    5.7303    9.9588 H       1  UNL1        0.0000
     47 H           5.4056    5.4071   10.7465 H       1  UNL1        0.0000
     48 C           6.1757    3.7614    9.5937 C.3     1  UNL1        0.0000
     49 H           6.8990    3.4126   10.3364 H       1  UNL1        0.0000
     50 H           6.6607    3.6202    8.6278 H       1  UNL1        0.0000
     51 C           5.4328    8.0633    8.8171 C.3     1  UNL1        0.0000
     52 H           5.0480    8.7297    8.0526 H       1  UNL1        0.0000
     53 H           6.4911    8.2745    8.9344 H       1  UNL1        0.0000
     54 H           4.9415    8.3238    9.7494 H       1  UNL1        0.0000
     55 C           6.2265    5.8335    6.8257 C.3     1  UNL1        0.0000
     56 H           5.7564    5.1304    6.1440 H       1  UNL1        0.0000
     57 H           7.1776    5.4074    7.1309 H       1  UNL1        0.0000
     58 H           6.4520    6.7371    6.2678 H       1  UNL1        0.0000
     59 C           4.2648    2.4909   11.6283 C.3     1  UNL1        0.0000
     60 H           5.1797    2.2363   12.1561 H       1  UNL1        0.0000
     61 H           3.5445    1.7082   11.8417 H       1  UNL1        0.0000
     62 H           3.8973    3.4125   12.0663 H       1  UNL1        0.0000
     63 C           5.3481    0.8274    9.3884 C.3     1  UNL1        0.0000
     64 H           6.1399    0.8431    8.6473 H       1  UNL1        0.0000
     65 H           4.5667    0.1696    9.0204 H       1  UNL1        0.0000
     66 H           5.7578    0.3759   10.2865 H       1  UNL1        0.0000
@<TRIPOS>BOND
     1    38    37    1
     2    39    37    1
     3    20    19    1
     4    18    15    1
     5    44    41    1
     6    37    40    1
     7    37    26    1
     8    21    19    1
     9    19    22    1
    10    19     5    1
    11    56    55    1
    12    58    55    1
    13    15    16    1
    14    15    17    1
    15    15     4    1
    16    41    42    1
    17    41    43    1
    18    41    27    1
    19    26    27    1
    20    26    25    1
    21    35    33    1
    22    55    57    1
    23    55     6    1
    24     5     4    2
    25     5     1    1
    26    27    23    1
    27     4     3    1
    28    25    33    1
    29    25    24    2
    30    33    34    1
    31    33    36    1
    32     1     6    1
    33     1     2    1
    34    52    51    1
    35     6    51    1
    36     6    45    1
    37     3     2    1
    38     3    11    1
    39    23    24    1
    40    23    32    1
    41    13    11    1
    42    50    48    1
    43    64    63    1
    44    51    53    1
    45    51    54    1
    46    24    28    1
    47     2     7    1
    48    65    63    1
    49    11    14    1
    50    11    12    1
    51    63    32    1
    52    63    66    1
    53    48    32    1
    54    48    45    1
    55    48    49    1
    56    32    59    1
    57    45    46    1
    58    45    47    1
    59    29    28    1
    60    28    31    1
    61    28    30    1
    62     7     9    1
    63     7     8    1
    64     7    10    1
    65    59    61    1
    66    59    62    1
    67    59    60    1
