@<TRIPOS>MOLECULE
4,5,6,7,8,9,10,11,12,13
 27 28 0 0 0
SMALL
GASTEIGER

@<TRIPOS>ATOM
      1 SI         -3.2501    3.8815    3.2970 Si      1  UNL1        0.0000
      2 C          -3.5285    2.2387    2.3731 C.3     1  UNL1        0.0000
      3 C          -4.2269    3.9241    4.9326 C.3     1  UNL1        0.0000
      4 C          -1.4353    4.3520    3.5061 C.3     1  UNL1        0.0000
      5 C          -0.9363    5.2635    4.4645 C.3     1  UNL1        0.0000
      6 C           0.3236    5.7247    4.0336 C.2     1  UNL1        0.0000
      7 C           0.5934    5.1402    2.7832 C.2     1  UNL1        0.0000
      8 C          -0.5015    4.3286    2.4407 C.3     1  UNL1        0.0000
      9 C          -3.5170    5.4180    2.2357 C.3     1  UNL1        0.0000
     10 C          -3.7723    6.7163    2.7334 C.3     1  UNL1        0.0000
     11 C          -3.4432    7.6539    1.7341 C.3     1  UNL1        0.0000
     12 C          -2.9370    6.9474    0.6283 C.2     1  UNL1        0.0000
     13 C          -2.9455    5.5794    0.9492 C.2     1  UNL1        0.0000
     14 H          -4.5797    2.1033    2.1420 H       1  UNL1        0.0000
     15 H          -2.9764    2.1966    1.4404 H       1  UNL1        0.0000
     16 H          -3.2133    1.3987    2.9828 H       1  UNL1        0.0000
     17 H          -5.2903    3.8183    4.7466 H       1  UNL1        0.0000
     18 H          -4.0737    4.8537    5.4714 H       1  UNL1        0.0000
     19 H          -3.9239    3.1093    5.5812 H       1  UNL1        0.0000
     20 H          -1.3794    5.4537    5.4355 H       1  UNL1        0.0000
     21 H           1.0113    6.3332    4.6067 H       1  UNL1        0.0000
     22 H           1.5333    5.1983    2.2492 H       1  UNL1        0.0000
     23 H          -0.5465    3.6685    1.5820 H       1  UNL1        0.0000
     24 H          -4.2787    6.9394    3.6657 H       1  UNL1        0.0000
     25 H          -3.6430    8.7172    1.7650 H       1  UNL1        0.0000
     26 H          -2.7121    7.3714   -0.3421 H       1  UNL1        0.0000
     27 H          -2.7086    4.7742    0.2632 H       1  UNL1        0.0000
@<TRIPOS>BOND
     1    26    12    1
     2    27    13    1
     3    12    13    2
     4    12    11    1
     5    13     9    1
     6    15     2    1
     7    23     8    1
     8    11    25    1
     9    11    10    1
    10    14     2    1
    11     9    10    1
    12     9     1    1
    13    22     7    1
    14     2    16    1
    15     2     1    1
    16     8     7    1
    17     8     4    1
    18    10    24    1
    19     7     6    2
    20     1     4    1
    21     1     3    1
    22     4     5    1
    23     6     5    1
    24     6    21    1
    25     5    20    1
    26    17     3    1
    27     3    18    1
    28     3    19    1
