@<TRIPOS>MOLECULE
4,5,6,7,8,10,11,12,13
 27 28 0 0 0
SMALL
GASTEIGER

@<TRIPOS>ATOM
      1 SI         14.5567   12.4071    6.5969 Si      1  UNL1        0.0000
      2 C          16.2703   11.8692    5.9551 C.3     1  UNL1        0.0000
      3 C          14.7097   13.4589    8.1823 C.3     1  UNL1        0.0000
      4 C          13.5088   13.2756    5.2848 C.3     1  UNL1        0.0000
      5 C          12.4293   14.1590    5.5533 C.3     1  UNL1        0.0000
      6 C          11.6129   14.2310    4.4074 C.2     1  UNL1        0.0000
      7 C          12.1490   13.3630    3.4347 C.2     1  UNL1        0.0000
      8 C          13.2964   12.7549    3.9797 C.3     1  UNL1        0.0000
      9 C          13.3526   10.9691    6.8350 C.3     1  UNL1        0.0000
     10 C          12.2175   10.9952    7.6886 C.2     1  UNL1        0.0000
     11 C          11.3206    9.9918    7.2736 C.2     1  UNL1        0.0000
     12 C          11.8644    9.3644    6.1342 C.2     1  UNL1        0.0000
     13 C          13.0986    9.9796    5.8469 C.2     1  UNL1        0.0000
     14 H          16.7906   11.2747    6.6982 H       1  UNL1        0.0000
     15 H          16.1972   11.2763    5.0495 H       1  UNL1        0.0000
     16 H          16.8850   12.7352    5.7340 H       1  UNL1        0.0000
     17 H          15.2023   12.8988    8.9694 H       1  UNL1        0.0000
     18 H          13.7385   13.7714    8.5545 H       1  UNL1        0.0000
     19 H          15.2971   14.3514    7.9969 H       1  UNL1        0.0000
     20 H          12.3374   14.7868    6.4348 H       1  UNL1        0.0000
     21 H          10.7834   14.9101    4.2552 H       1  UNL1        0.0000
     22 H          11.8151   13.2860    2.4071 H       1  UNL1        0.0000
     23 H          13.9910   12.1209    3.4362 H       1  UNL1        0.0000
     24 H          12.1291   11.5844    8.5965 H       1  UNL1        0.0000
     25 H          10.4239    9.6817    7.7950 H       1  UNL1        0.0000
     26 H          11.4675    8.4783    5.6538 H       1  UNL1        0.0000
     27 H          13.8094    9.6455    5.0964 H       1  UNL1        0.0000
@<TRIPOS>BOND
     1    22     7    1
     2     7     8    1
     3     7     6    2
     4    23     8    1
     5     8     4    1
     6    21     6    1
     7     6     5    1
     8    15     2    1
     9    27    13    1
    10     4     5    1
    11     4     1    1
    12     5    20    1
    13    26    12    1
    14    16     2    1
    15    13    12    2
    16    13     9    1
    17     2     1    1
    18     2    14    1
    19    12    11    1
    20     1     9    1
    21     1     3    1
    22     9    10    1
    23    11    10    2
    24    11    25    1
    25    10    24    1
    26    19     3    1
    27     3    18    1
    28     3    17    1
