@<TRIPOS>MOLECULE
6,7,8,23,24,30,31,32,47,48
 57 62 0 0 0
SMALL
GASTEIGER

@<TRIPOS>ATOM
      1 SI          4.3094    6.2577   12.7975 Si      1  UNL1        0.0000
      2 C           3.2924    8.3369   10.0822 C.3     1  UNL1        0.0000
      3 H           3.2463    9.2915   10.6119 H       1  UNL1        0.0000
      4 H           2.5096    7.7022   10.4921 H       1  UNL1        0.0000
      5 H           3.0858    8.5283    9.0291 H       1  UNL1        0.0000
      6 C           4.6628    7.7416   10.2441 C.2     1  UNL1        0.0000
      7 C           5.2260    7.2187   11.4449 C.2     1  UNL1        0.0000
      8 C           6.6324    7.0880   11.2056 C.ar    1  UNL1        0.0000
      9 C           7.7096    6.8990   12.1097 C.ar    1  UNL1        0.0000
     10 H           7.5053    6.7111   13.1529 H       1  UNL1        0.0000
     11 C           8.9921    7.0340   11.6738 C.ar    1  UNL1        0.0000
     12 H           9.8152    6.9300   12.3656 H       1  UNL1        0.0000
     13 C           9.3028    7.2899   10.3058 C.ar    1  UNL1        0.0000
     14 C          10.6316    7.3191    9.8562 C.2     1  UNL1        0.0000
     15 H          11.4246    7.1361   10.5672 H       1  UNL1        0.0000
     16 C          10.9273    7.5573    8.5382 C.2     1  UNL1        0.0000
     17 H          11.9541    7.5638    8.2033 H       1  UNL1        0.0000
     18 C           9.9006    7.7937    7.6221 C.2     1  UNL1        0.0000
     19 H          10.1421    7.9828    6.5861 H       1  UNL1        0.0000
     20 C           8.5912    7.7852    8.0337 C.3     1  UNL1        0.0000
     21 H           7.7998    7.9724    7.3206 H       1  UNL1        0.0000
     22 C           8.2597    7.5207    9.3713 C.ar    1  UNL1        0.0000
     23 C           6.9125    7.4849    9.8533 C.ar    1  UNL1        0.0000
     24 C           5.6813    7.9002    9.2745 C.2     1  UNL1        0.0000
     25 H           5.5570    8.4323    8.3391 H       1  UNL1        0.0000
     26 C           1.7443    4.7856   10.9369 C.3     1  UNL1        0.0000
     27 H           1.1531    4.3069   10.1601 H       1  UNL1        0.0000
     28 H           1.5632    5.8569   10.8938 H       1  UNL1        0.0000
     29 H           1.3856    4.4348   11.9055 H       1  UNL1        0.0000
     30 C           3.1924    4.4136   10.7875 C.2     1  UNL1        0.0000
     31 C           4.1985    4.6771   11.7582 C.3     1  UNL1        0.0000
     32 C           5.3046    3.8130   11.4481 C.3     1  UNL1        0.0000
     33 C           6.4330    3.4133   12.2138 C.2     1  UNL1        0.0000
     34 H           6.6431    3.8982   13.1567 H       1  UNL1        0.0000
     35 C           7.1936    2.3617   11.8045 C.2     1  UNL1        0.0000
     36 H           8.0245    2.0265   12.4075 H       1  UNL1        0.0000
     37 C           6.9537    1.6788   10.5755 C.ar    1  UNL1        0.0000
     38 C           7.8024    0.6538   10.1321 C.ar    1  UNL1        0.0000
     39 H           8.6566    0.3886   10.7378 H       1  UNL1        0.0000
     40 C           7.5696    0.0090    8.9435 C.ar    1  UNL1        0.0000
     41 H           8.2382   -0.7701    8.6085 H       1  UNL1        0.0000
     42 C           6.4681    0.3565    8.1592 C.ar    1  UNL1        0.0000
     43 H           6.2934   -0.1585    7.2255 H       1  UNL1        0.0000
     44 C           5.6103    1.3466    8.5715 C.ar    1  UNL1        0.0000
     45 H           4.7517    1.6134    7.9687 H       1  UNL1        0.0000
     46 C           5.8385    2.0335    9.7740 C.ar    1  UNL1        0.0000
     47 C           4.9728    3.0665   10.2570 C.3     1  UNL1        0.0000
     48 C           3.6645    3.4605    9.8615 C.2     1  UNL1        0.0000
     49 H           3.0540    2.9694    9.1146 H       1  UNL1        0.0000
     50 C           2.6497    7.0230   13.3616 C.3     1  UNL1        0.0000
     51 H           1.9998    7.3531   12.5624 H       1  UNL1        0.0000
     52 H           2.8479    7.8834   13.9925 H       1  UNL1        0.0000
     53 H           2.0966    6.3050   13.9580 H       1  UNL1        0.0000
     54 C           5.2239    6.0632   14.4652 C.3     1  UNL1        0.0000
     55 H           4.5789    5.5536   15.1741 H       1  UNL1        0.0000
     56 H           5.4557    7.0394   14.8794 H       1  UNL1        0.0000
     57 H           6.1474    5.5010   14.4101 H       1  UNL1        0.0000
@<TRIPOS>BOND
     1    19    18    1
     2    43    42    1
     3    21    20    1
     4    18    20    1
     5    18    16    2
     6    45    44    1
     7    20    22    1
     8    42    44   ar
     9    42    40   ar
    10    17    16    1
    11    25    24    1
    12    16    14    1
    13    44    46   ar
    14    41    40    1
    15    40    38   ar
    16     5     2    1
    17    49    48    1
    18    24    23    1
    19    24     6    2
    20    22    23   ar
    21    22    13   ar
    22    46    47    1
    23    46    37   ar
    24    23     8   ar
    25    14    13    2
    26    14    15    1
    27    48    47    1
    28    48    30    2
    29     2     6    1
    30     2     4    1
    31     2     3    1
    32    38    37   ar
    33    38    39    1
    34    27    26    1
    35     6     7    1
    36    47    32    1
    37    13    11   ar
    38    37    35    1
    39    30    26    1
    40    30    31    1
    41    28    26    1
    42    26    29    1
    43     8     7    2
    44     8     9   ar
    45     7     1    1
    46    32    31    1
    47    32    33    1
    48    11     9   ar
    49    11    12    1
    50    31     1    1
    51    35    33    2
    52    35    36    1
    53     9    10    1
    54    33    34    1
    55    51    50    1
    56     1    50    1
    57     1    54    1
    58    50    53    1
    59    50    52    1
    60    57    54    1
    61    54    56    1
    62    54    55    1
