@<TRIPOS>MOLECULE
4,6,7,9,52,53,54,55,57
 107 114 0 0 0
SMALL
GASTEIGER

@<TRIPOS>ATOM
      1 SI          2.4128    6.8978    7.8424 Si      1  UNL1        0.0000
      2 N           6.6164    8.6753    2.4169 N.pl3   1  UNL1        0.0000
      3 N          -3.3602    6.2492    3.7768 N.pl3   1  UNL1        0.0000
      4 C           3.8943    8.2074    5.6347 C.ar    1  UNL1        0.0000
      5 C           2.8171    8.2703    6.5960 C.3     1  UNL1        0.0000
      6 C           1.8728    9.2067    6.0686 C.2     1  UNL1        0.0000
      7 C           2.3257    9.7050    4.8339 C.2     1  UNL1        0.0000
      8 H           1.8626   10.5074    4.2724 H       1  UNL1        0.0000
      9 C           3.5821    9.0966    4.5457 C.ar    1  UNL1        0.0000
     10 C           4.4821    9.2971    3.4755 C.ar    1  UNL1        0.0000
     11 C           5.6892    8.6080    3.4769 C.ar    1  UNL1        0.0000
     12 C           6.0174    7.7507    4.5678 C.ar    1  UNL1        0.0000
     13 C           5.1459    7.5669    5.6181 C.ar    1  UNL1        0.0000
     14 H           5.4471    6.9583    6.4580 H       1  UNL1        0.0000
     15 C           0.6073    9.6912    6.7161 C.3     1  UNL1        0.0000
     16 H           0.4995   10.7641    6.5531 H       1  UNL1        0.0000
     17 H           0.6162    9.5069    7.7867 H       1  UNL1        0.0000
     18 H          -0.2628    9.2001    6.2694 H       1  UNL1        0.0000
     19 C           4.0139   10.2159    2.4127 C.ar    1  UNL1        0.0000
     20 C           2.8666    9.8801    1.6925 C.ar    1  UNL1        0.0000
     21 H           2.3708    8.9332    1.8857 H       1  UNL1        0.0000
     22 C           2.3715   10.7366    0.7276 C.ar    1  UNL1        0.0000
     23 H           1.4863   10.4617    0.1738 H       1  UNL1        0.0000
     24 C           3.0006   11.9465    0.4797 C.ar    1  UNL1        0.0000
     25 H           2.6110   12.6165   -0.2726 H       1  UNL1        0.0000
     26 C           4.1231   12.2982    1.2081 C.ar    1  UNL1        0.0000
     27 H           4.6084   13.2475    1.0308 H       1  UNL1        0.0000
     28 C           4.6265   11.4394    2.1705 C.ar    1  UNL1        0.0000
     29 H           5.4866   11.7313    2.7552 H       1  UNL1        0.0000
     30 C           7.3368    7.0117    4.5560 C.3     1  UNL1        0.0000
     31 H           7.7984    7.1865    3.5825 H       1  UNL1        0.0000
     32 C           8.2651    7.5437    5.6503 C.3     1  UNL1        0.0000
     33 H           9.2375    7.0594    5.5897 H       1  UNL1        0.0000
     34 H           7.8477    7.3528    6.6366 H       1  UNL1        0.0000
     35 H           8.4043    8.6172    5.5440 H       1  UNL1        0.0000
     36 C           7.1412    5.5009    4.7016 C.3     1  UNL1        0.0000
     37 H           6.4140    5.1473    3.9740 H       1  UNL1        0.0000
     38 H           6.7999    5.2365    5.7002 H       1  UNL1        0.0000
     39 H           8.0834    4.9867    4.5244 H       1  UNL1        0.0000
     40 C           6.1562    8.5341    1.0418 C.3     1  UNL1        0.0000
     41 H           5.0698    8.5760    0.9619 H       1  UNL1        0.0000
     42 H           6.4797    7.5487    0.6776 H       1  UNL1        0.0000
     43 C           6.8532    9.6421    0.2557 C.3     1  UNL1        0.0000
     44 H           7.0267    9.3694   -0.7835 H       1  UNL1        0.0000
     45 H           6.2578   10.5556    0.2853 H       1  UNL1        0.0000
     46 C           8.1470    9.8297    1.0442 C.3     1  UNL1        0.0000
     47 H           8.6155   10.7973    0.8741 H       1  UNL1        0.0000
     48 H           8.8573    9.0443    0.7831 H       1  UNL1        0.0000
     49 C           7.6888    9.6569    2.4903 C.3     1  UNL1        0.0000
     50 H           8.4970    9.3013    3.1371 H       1  UNL1        0.0000
     51 H           7.3348   10.6147    2.8993 H       1  UNL1        0.0000
     52 C           0.2354    6.0432    6.0145 C.ar    1  UNL1        0.0000
     53 C           1.5552    5.8051    6.5518 C.3     1  UNL1        0.0000
     54 C           2.2286    4.9836    5.5921 C.2     1  UNL1        0.0000
     55 C           1.3782    4.7144    4.5077 C.2     1  UNL1        0.0000
     56 H           1.5944    4.0341    3.6933 H       1  UNL1        0.0000
     57 C           0.1337    5.3642    4.7492 C.ar    1  UNL1        0.0000
     58 C          -1.0656    5.3765    4.0020 C.ar    1  UNL1        0.0000
     59 C          -2.1585    6.0731    4.5016 C.ar    1  UNL1        0.0000
     60 C          -2.0809    6.7027    5.7803 C.ar    1  UNL1        0.0000
     61 C          -0.9135    6.6884    6.5091 C.ar    1  UNL1        0.0000
     62 H          -0.8860    7.1409    7.4877 H       1  UNL1        0.0000
     63 C           3.6104    4.4083    5.7058 C.3     1  UNL1        0.0000
     64 H           3.8147    4.0845    6.7243 H       1  UNL1        0.0000
     65 H           4.3635    5.1406    5.4045 H       1  UNL1        0.0000
     66 H           3.7046    3.5470    5.0453 H       1  UNL1        0.0000
     67 C          -1.0189    4.6509    2.7133 C.ar    1  UNL1        0.0000
     68 C          -0.1130    5.0644    1.7352 C.ar    1  UNL1        0.0000
     69 H           0.5037    5.9410    1.9120 H       1  UNL1        0.0000
     70 C          -0.0161    4.3770    0.5401 C.ar    1  UNL1        0.0000
     71 H           0.6833    4.7104   -0.2122 H       1  UNL1        0.0000
     72 C          -0.8050    3.2605    0.3110 C.ar    1  UNL1        0.0000
     73 H          -0.7275    2.7241   -0.6233 H       1  UNL1        0.0000
     74 C          -1.6842    2.8281    1.2883 C.ar    1  UNL1        0.0000
     75 H          -2.2881    1.9473    1.1220 H       1  UNL1        0.0000
     76 C          -1.7876    3.5153    2.4853 C.ar    1  UNL1        0.0000
     77 H          -2.4528    3.1584    3.2578 H       1  UNL1        0.0000
     78 C          -3.2969    7.4472    6.2881 C.3     1  UNL1        0.0000
     79 H          -4.1804    6.9341    5.9068 H       1  UNL1        0.0000
     80 C          -3.3016    8.8680    5.7152 C.3     1  UNL1        0.0000
     81 H          -3.1952    8.8350    4.6354 H       1  UNL1        0.0000
     82 H          -2.4787    9.4500    6.1254 H       1  UNL1        0.0000
     83 H          -4.2337    9.3717    5.9619 H       1  UNL1        0.0000
     84 C          -3.4041    7.4883    7.8124 C.3     1  UNL1        0.0000
     85 H          -3.2720    6.4951    8.2357 H       1  UNL1        0.0000
     86 H          -4.3877    7.8554    8.0978 H       1  UNL1        0.0000
     87 H          -2.6651    8.1576    8.2477 H       1  UNL1        0.0000
     88 C          -4.4217    5.2548    3.8941 C.3     1  UNL1        0.0000
     89 H          -5.2319    5.6545    4.5216 H       1  UNL1        0.0000
     90 H          -4.0658    4.3319    4.3621 H       1  UNL1        0.0000
     91 C           3.9421    6.1368    8.6997 C.3     1  UNL1        0.0000
     92 H           3.6353    5.3167    9.3408 H       1  UNL1        0.0000
     93 H           4.4123    6.8836    9.3310 H       1  UNL1        0.0000
     94 H           4.6967    5.7578    8.0235 H       1  UNL1        0.0000
     95 C          -4.9361    5.0391    2.4702 C.3     1  UNL1        0.0000
     96 H          -4.3636    4.2553    1.9726 H       1  UNL1        0.0000
     97 H          -5.9917    4.7740    2.4470 H       1  UNL1        0.0000
     98 C           1.3258    7.3922    9.3358 C.3     1  UNL1        0.0000
     99 H           1.2186    6.5396    9.9982 H       1  UNL1        0.0000
    100 H           0.3286    7.7269    9.0817 H       1  UNL1        0.0000
    101 H           1.8074    8.1837    9.9011 H       1  UNL1        0.0000
    102 C          -4.6402    6.3851    1.8153 C.3     1  UNL1        0.0000
    103 H          -5.3826    7.1224    2.1229 H       1  UNL1        0.0000
    104 H          -4.6185    6.3348    0.7286 H       1  UNL1        0.0000
    105 C          -3.2774    6.7293    2.4058 C.3     1  UNL1        0.0000
    106 H          -2.4829    6.2419    1.8270 H       1  UNL1        0.0000
    107 H          -3.0739    7.8043    2.4109 H       1  UNL1        0.0000
@<TRIPOS>BOND
     1    44    43    1
     2    73    72    1
     3    25    24    1
     4    71    70    1
     5    23    22    1
     6    43    45    1
     7    43    40    1
     8    43    46    1
     9    72    70   ar
    10    72    74   ar
    11    24    22   ar
    12    24    26   ar
    13    70    68   ar
    14    42    40    1
    15    22    20   ar
    16   104   102    1
    17    48    46    1
    18    47    46    1
    19    41    40    1
    20    27    26    1
    21    40     2    1
    22    46    49    1
    23    75    74    1
    24    26    28   ar
    25    74    76   ar
    26    20    21    1
    27    20    19   ar
    28    68    69    1
    29    68    67   ar
    30   102   103    1
    31   102   105    1
    32   102    95    1
    33   106   105    1
    34    96    95    1
    35    28    19   ar
    36    28    29    1
    37   105   107    1
    38   105     3    1
    39    19    10    1
    40     2    49    1
    41     2    11    1
    42    97    95    1
    43    95    88    1
    44    76    67   ar
    45    76    77    1
    46    49    51    1
    47    49    50    1
    48    67    58    1
    49    10    11   ar
    50    10     9   ar
    51    11    12   ar
    52    31    30    1
    53    56    55    1
    54     3    88    1
    55     3    59    1
    56    88    90    1
    57    88    89    1
    58    37    36    1
    59    58    59   ar
    60    58    57   ar
    61     8     7    1
    62    59    60   ar
    63    55    57    1
    64    55    54    2
    65    39    36    1
    66     9     7    1
    67     9     4   ar
    68    30    12    1
    69    30    36    1
    70    30    32    1
    71    12    13   ar
    72    81    80    1
    73    36    38    1
    74    57    52   ar
    75     7     6    2
    76    66    63    1
    77    65    63    1
    78    35    32    1
    79    33    32    1
    80    54    63    1
    81    54    53    1
    82    13     4   ar
    83    13    14    1
    84     4     5    1
    85    32    34    1
    86    63    64    1
    87    80    83    1
    88    80    82    1
    89    80    78    1
    90    60    78    1
    91    60    61   ar
    92    79    78    1
    93    52    61   ar
    94    52    53    1
    95     6     5    1
    96     6    15    1
    97    18    15    1
    98    78    84    1
    99    61    62    1
   100    53     1    1
   101    16    15    1
   102     5     1    1
   103    15    17    1
   104    84    86    1
   105    84    85    1
   106    84    87    1
   107     1    91    1
   108     1    98    1
   109    94    91    1
   110    91    93    1
   111    91    92    1
   112   100    98    1
   113    98   101    1
   114    98    99    1
