@<TRIPOS>MOLECULE
10,11,12,13,14,16,17,18,19
 46 47 0 0 0
SMALL
GASTEIGER

@<TRIPOS>ATOM
      1 SI         -1.9547   -2.5613    8.9026 Si      1  UNL1        0.0000
      2 SI          0.0331   -3.0516    6.5484 Si      1  UNL1        0.0000
      3 N          -0.4620   -2.1473    8.0156 N.3     1  UNL1        0.0000
      4 C          -3.4087   -2.3373    7.6878 C.3     1  UNL1        0.0000
      5 C          -1.7847   -4.3411    9.5720 C.3     1  UNL1        0.0000
      6 C          -2.2707   -1.4266   10.3951 C.3     1  UNL1        0.0000
      7 C           1.8947   -3.4432    6.6457 C.3     1  UNL1        0.0000
      8 C          -0.3838   -1.9524    5.0483 C.3     1  UNL1        0.0000
      9 C          -0.8640   -4.7221    6.3889 C.3     1  UNL1        0.0000
     10 C           1.6057   -0.4656    7.6900 C.3     1  UNL1        0.0000
     11 C           1.6045    0.6796    6.8487 C.3     1  UNL1        0.0000
     12 C           2.9143    1.2101    6.7932 C.2     1  UNL1        0.0000
     13 C           3.7266    0.4441    7.6404 C.2     1  UNL1        0.0000
     14 C           2.9205   -0.5593    8.2264 C.3     1  UNL1        0.0000
     15 C           0.1751    0.0016    9.5241 C.3     1  UNL1        0.0000
     16 C           1.0008    0.0565   10.6796 C.3     1  UNL1        0.0000
     17 C           0.9222    1.3539   11.2368 C.2     1  UNL1        0.0000
     18 C           0.1059    2.1326   10.4050 C.2     1  UNL1        0.0000
     19 C          -0.3254    1.3181    9.3316 C.3     1  UNL1        0.0000
     20 B           0.3179   -1.0552    8.3728 B       1  UNL1        0.0000
     21 H          -4.3228   -2.7446    8.1081 H       1  UNL1        0.0000
     22 H          -3.5857   -1.2849    7.4859 H       1  UNL1        0.0000
     23 H          -3.2370   -2.8264    6.7354 H       1  UNL1        0.0000
     24 H          -2.2587   -4.4233   10.5453 H       1  UNL1        0.0000
     25 H          -2.2581   -5.0693    8.9235 H       1  UNL1        0.0000
     26 H          -0.7445   -4.6283    9.6890 H       1  UNL1        0.0000
     27 H          -3.1778   -1.7407   10.9034 H       1  UNL1        0.0000
     28 H          -1.4616   -1.4653   11.1163 H       1  UNL1        0.0000
     29 H          -2.4012   -0.3899   10.1061 H       1  UNL1        0.0000
     30 H           2.5019   -2.5784    6.4019 H       1  UNL1        0.0000
     31 H           2.1542   -4.2333    5.9481 H       1  UNL1        0.0000
     32 H           2.1806   -3.7758    7.6389 H       1  UNL1        0.0000
     33 H           0.2821   -1.0973    4.9964 H       1  UNL1        0.0000
     34 H          -1.4011   -1.5759    5.0958 H       1  UNL1        0.0000
     35 H          -0.2795   -2.5040    4.1194 H       1  UNL1        0.0000
     36 H          -0.6222   -5.1563    5.4239 H       1  UNL1        0.0000
     37 H          -0.5430   -5.4270    7.1472 H       1  UNL1        0.0000
     38 H          -1.9422   -4.6405    6.4461 H       1  UNL1        0.0000
     39 H           0.7689    1.0218    6.2481 H       1  UNL1        0.0000
     40 H           3.2418    2.0263    6.1625 H       1  UNL1        0.0000
     41 H           4.7938    0.5610    7.7773 H       1  UNL1        0.0000
     42 H           3.2861   -1.3576    8.8628 H       1  UNL1        0.0000
     43 H           1.4929   -0.7919   11.1425 H       1  UNL1        0.0000
     44 H           1.3659    1.6708   12.1715 H       1  UNL1        0.0000
     45 H          -0.1928    3.1574   10.5834 H       1  UNL1        0.0000
     46 H          -1.0346    1.6167    8.5672 H       1  UNL1        0.0000
@<TRIPOS>BOND
     1    35     8    1
     2    33     8    1
     3     8    34    1
     4     8     2    1
     5    36     9    1
     6    31     7    1
     7    40    12    1
     8    39    11    1
     9     9    38    1
    10     9     2    1
    11     9    37    1
    12    30     7    1
    13     2     7    1
    14     2     3    1
    15     7    32    1
    16    23     4    1
    17    12    11    1
    18    12    13    2
    19    11    10    1
    20    22     4    1
    21    13    41    1
    22    13    14    1
    23     4    21    1
    24     4     1    1
    25    10    14    1
    26    10    20    1
    27     3    20    1
    28     3     1    1
    29    14    42    1
    30    20    15    1
    31    46    19    1
    32     1     5    1
    33     1     6    1
    34    25     5    1
    35    19    15    1
    36    19    18    1
    37    15    16    1
    38     5    26    1
    39     5    24    1
    40    29     6    1
    41     6    27    1
    42     6    28    1
    43    18    45    1
    44    18    17    2
    45    16    43    1
    46    16    17    1
    47    17    44    1
