@<TRIPOS>MOLECULE
2,3,4,5,6,7,8,9,10,11
 51 54 0 0 0
SMALL
GASTEIGER

@<TRIPOS>ATOM
      1 SI          6.5307    8.0526    3.6882 Si      1  UNL1        0.0000
      2 C           8.0546    8.0543    2.5593 C.3     1  UNL1        0.0000
      3 C           8.0873    7.5011    1.2479 C.3     1  UNL1        0.0000
      4 C           9.4338    7.2694    0.8891 C.2     1  UNL1        0.0000
      5 C          10.2453    7.6382    1.9814 C.2     1  UNL1        0.0000
      6 C           9.4028    8.0879    3.0206 C.3     1  UNL1        0.0000
      7 C           6.8287    6.2503    4.2038 C.3     1  UNL1        0.0000
      8 C           6.4554    5.0867    3.4694 C.3     1  UNL1        0.0000
      9 C           7.2490    3.9923    3.8745 C.2     1  UNL1        0.0000
     10 C           8.1568    4.4441    4.8694 C.2     1  UNL1        0.0000
     11 C           7.9187    5.8531    5.0567 C.3     1  UNL1        0.0000
     12 C           8.7293    6.5767    5.9734 C.2     1  UNL1        0.0000
     13 C           9.7012    5.9267    6.6711 C.2     1  UNL1        0.0000
     14 C           9.1654    3.7614    5.6213 C.ar    1  UNL1        0.0000
     15 C           9.4268    2.3897    5.4833 C.ar    1  UNL1        0.0000
     16 C          10.4205    1.7908    6.2174 C.ar    1  UNL1        0.0000
     17 C          11.1841    2.5414    7.1139 C.ar    1  UNL1        0.0000
     18 C          10.9493    3.8848    7.2639 C.ar    1  UNL1        0.0000
     19 C           9.9434    4.5285    6.5263 C.ar    1  UNL1        0.0000
     20 C           5.3801    4.9892    2.4249 C.3     1  UNL1        0.0000
     21 C           6.6688    9.2911    5.1365 C.3     1  UNL1        0.0000
     22 C           4.8912    8.3286    2.7380 C.3     1  UNL1        0.0000
     23 C           4.5619    9.7944    2.4640 C.3     1  UNL1        0.0000
     24 C           5.6191   10.4869    1.6113 C.3     1  UNL1        0.0000
     25 C           5.2496   11.9365    1.3220 C.3     1  UNL1        0.0000
     26 H           7.2396    7.4102    0.5775 H       1  UNL1        0.0000
     27 H           9.7855    6.9491   -0.0845 H       1  UNL1        0.0000
     28 H          11.3284    7.6530    1.9905 H       1  UNL1        0.0000
     29 H           9.7454    8.5336    3.9479 H       1  UNL1        0.0000
     30 H           7.1102    2.9698    3.5446 H       1  UNL1        0.0000
     31 H           8.5437    7.6274    6.1472 H       1  UNL1        0.0000
     32 H          10.3188    6.4698    7.3722 H       1  UNL1        0.0000
     33 H           8.8446    1.8097    4.7816 H       1  UNL1        0.0000
     34 H          10.6197    0.7360    6.0987 H       1  UNL1        0.0000
     35 H          11.9659    2.0600    7.6828 H       1  UNL1        0.0000
     36 H          11.5454    4.4694    7.9502 H       1  UNL1        0.0000
     37 H           5.7276    5.3961    1.4695 H       1  UNL1        0.0000
     38 H           4.4861    5.5273    2.7322 H       1  UNL1        0.0000
     39 H           5.1178    3.9454    2.2612 H       1  UNL1        0.0000
     40 H           7.6927    9.6025    5.3149 H       1  UNL1        0.0000
     41 H           6.2797    8.8670    6.0564 H       1  UNL1        0.0000
     42 H           6.0979   10.1878    4.9252 H       1  UNL1        0.0000
     43 H           4.9131    7.8010    1.7851 H       1  UNL1        0.0000
     44 H           4.0725    7.9001    3.3165 H       1  UNL1        0.0000
     45 H           3.5989    9.8521    1.9490 H       1  UNL1        0.0000
     46 H           4.4520   10.3283    3.4093 H       1  UNL1        0.0000
     47 H           5.7326    9.9470    0.6694 H       1  UNL1        0.0000
     48 H           6.5800   10.4532    2.1281 H       1  UNL1        0.0000
     49 H           6.0169   12.4132    0.7175 H       1  UNL1        0.0000
     50 H           5.1459   12.4966    2.2488 H       1  UNL1        0.0000
     51 H           4.3058   11.9915    0.7839 H       1  UNL1        0.0000
@<TRIPOS>BOND
     1    27     4    1
     2    26     3    1
     3    47    24    1
     4    49    25    1
     5    51    25    1
     6     4     3    1
     7     4     5    2
     8     3     2    1
     9    25    24    1
    10    25    50    1
    11    37    20    1
    12    24    48    1
    13    24    23    1
    14    43    22    1
    15    45    23    1
    16     5    28    1
    17     5     6    1
    18    39    20    1
    19    20    38    1
    20    20     8    1
    21    23    22    1
    22    23    46    1
    23     2     6    1
    24     2     1    1
    25    22    44    1
    26    22     1    1
    27     6    29    1
    28     8     9    1
    29     8     7    1
    30    30     9    1
    31     1     7    1
    32     1    21    1
    33     9    10    2
    34     7    11    1
    35    33    15    1
    36    10    11    1
    37    10    14    1
    38    42    21    1
    39    11    12    1
    40    21    40    1
    41    21    41    1
    42    15    14   ar
    43    15    16   ar
    44    14    19   ar
    45    12    31    1
    46    12    13    2
    47    34    16    1
    48    16    17   ar
    49    19    13    1
    50    19    18   ar
    51    13    32    1
    52    17    18   ar
    53    17    35    1
    54    18    36    1
