@<TRIPOS>MOLECULE
4,5,6,7,8,9,10,11,12,13
 63 66 0 0 0
SMALL
GASTEIGER

@<TRIPOS>ATOM
      1 O           6.4311    5.9127    7.2919 O.3     1  UNL1        0.0000
      2 SI          6.6359    6.6693    8.7523 Si      1  UNL1        0.0000
      3 SI          6.5529    5.6855    5.6461 Si      1  UNL1        0.0000
      4 C           5.6315    5.3770    9.6817 C.2     1  UNL1        0.0000
      5 C           4.2599    5.0445    9.4587 C.2     1  UNL1        0.0000
      6 C           4.0192    3.7719   10.0197 C.2     1  UNL1        0.0000
      7 C           5.2267    3.3024   10.6146 C.2     1  UNL1        0.0000
      8 C           6.2181    4.2813   10.3654 C.3     1  UNL1        0.0000
      9 C           3.6149    3.0501    6.6060 C.3     1  UNL1        0.0000
     10 C           4.1368    4.3382    6.3303 C.3     1  UNL1        0.0000
     11 C           5.4062    4.1954    5.6998 C.3     1  UNL1        0.0000
     12 C           5.6633    2.7987    5.5893 C.2     1  UNL1        0.0000
     13 C           4.5608    2.1083    6.1155 C.2     1  UNL1        0.0000
     14 C           5.9218    8.4324    8.6630 C.3     1  UNL1        0.0000
     15 H           6.6671    9.1151    8.2700 H       1  UNL1        0.0000
     16 H           5.6403    8.7882    9.6471 H       1  UNL1        0.0000
     17 H           5.0502    8.4988    8.0217 H       1  UNL1        0.0000
     18 C           8.4745    6.7029    9.2321 C.3     1  UNL1        0.0000
     19 H           8.9321    5.7316    9.0668 H       1  UNL1        0.0000
     20 H           8.6069    6.9693   10.2753 H       1  UNL1        0.0000
     21 H           9.0183    7.4295    8.6362 H       1  UNL1        0.0000
     22 C           5.7650    7.1948    4.7901 C.3     1  UNL1        0.0000
     23 H           4.7253    7.3316    5.0682 H       1  UNL1        0.0000
     24 H           5.8035    7.0887    3.7125 H       1  UNL1        0.0000
     25 H           6.2982    8.1024    5.0520 H       1  UNL1        0.0000
     26 C           8.3638    5.4772    5.1137 C.3     1  UNL1        0.0000
     27 H           8.9004    4.8281    5.7983 H       1  UNL1        0.0000
     28 H           8.8674    6.4390    5.1026 H       1  UNL1        0.0000
     29 H           8.4361    5.0576    4.1163 H       1  UNL1        0.0000
     30 C           3.1866    5.9950    9.0062 C.3     1  UNL1        0.0000
     31 H           3.5518    6.6823    8.2447 H       1  UNL1        0.0000
     32 H           2.8561    6.5973    9.8560 H       1  UNL1        0.0000
     33 H           2.3186    5.4537    8.6288 H       1  UNL1        0.0000
     34 C           5.4059    2.0841   11.4032 C.ar    1  UNL1        0.0000
     35 C           4.3175    1.4336   11.9860 C.ar    1  UNL1        0.0000
     36 H           3.3215    1.8289   11.8502 H       1  UNL1        0.0000
     37 C           4.5000    0.2913   12.7419 C.ar    1  UNL1        0.0000
     38 H           3.6451   -0.2005   13.1837 H       1  UNL1        0.0000
     39 C           5.7701   -0.2247   12.9333 C.ar    1  UNL1        0.0000
     40 H           5.9106   -1.1194   13.5218 H       1  UNL1        0.0000
     41 C           6.8592    0.4083   12.3562 C.ar    1  UNL1        0.0000
     42 H           7.8515    0.0024   12.4892 H       1  UNL1        0.0000
     43 C           6.6826    1.5492   11.5995 C.ar    1  UNL1        0.0000
     44 H           7.5369    2.0118   11.1224 H       1  UNL1        0.0000
     45 C           2.3517    2.7408    7.2750 C.ar    1  UNL1        0.0000
     46 C           1.2191    3.5387    7.1007 C.ar    1  UNL1        0.0000
     47 H           1.2597    4.3783    6.4209 H       1  UNL1        0.0000
     48 C           0.0440    3.2475    7.7687 C.ar    1  UNL1        0.0000
     49 H          -0.8252    3.8726    7.6227 H       1  UNL1        0.0000
     50 C          -0.0234    2.1561    8.6188 C.ar    1  UNL1        0.0000
     51 H          -0.9423    1.9315    9.1394 H       1  UNL1        0.0000
     52 C           1.0932    1.3532    8.7960 C.ar    1  UNL1        0.0000
     53 H           1.0464    0.5030    9.4606 H       1  UNL1        0.0000
     54 C           2.2728    1.6395    8.1347 C.ar    1  UNL1        0.0000
     55 H           3.1496    1.0235    8.2962 H       1  UNL1        0.0000
     56 C           6.8574    2.1593    4.9438 C.3     1  UNL1        0.0000
     57 H           6.8445    1.0850    5.1237 H       1  UNL1        0.0000
     58 H           7.7861    2.5654    5.3463 H       1  UNL1        0.0000
     59 H           6.8507    2.3307    3.8659 H       1  UNL1        0.0000
     60 H           3.6085    5.2754    6.4396 H       1  UNL1        0.0000
     61 H           7.2304    4.2721   10.7515 H       1  UNL1        0.0000
     62 H           3.0441    3.3109   10.1159 H       1  UNL1        0.0000
     63 H           4.4200    1.0364    6.0835 H       1  UNL1        0.0000
@<TRIPOS>BOND
     1    24    22    1
     2    59    56    1
     3    29    26    1
     4    22    25    1
     5    22    23    1
     6    22     3    1
     7    56    57    1
     8    56    58    1
     9    56    12    1
    10    28    26    1
    11    26     3    1
    12    26    27    1
    13    12    11    1
    14    12    13    2
    15     3    11    1
    16     3     1    1
    17    11    10    1
    18    63    13    1
    19    13     9    1
    20    10    60    1
    21    10     9    1
    22    47    46    1
    23     9    45    1
    24    46    45   ar
    25    46    48   ar
    26    45    54   ar
    27     1     2    1
    28    49    48    1
    29    48    50   ar
    30    17    14    1
    31    54    55    1
    32    54    52   ar
    33    31    30    1
    34    15    14    1
    35    50    52   ar
    36    50    51    1
    37    33    30    1
    38    21    18    1
    39    14     2    1
    40    14    16    1
    41     2    18    1
    42     2     4    1
    43    52    53    1
    44    30     5    1
    45    30    32    1
    46    19    18    1
    47    18    20    1
    48     5     4    2
    49     5     6    1
    50     4     8    1
    51     6    62    1
    52     6     7    2
    53     8     7    1
    54     8    61    1
    55     7    34    1
    56    44    43    1
    57    34    43   ar
    58    34    35   ar
    59    43    41   ar
    60    36    35    1
    61    35    37   ar
    62    41    42    1
    63    41    39   ar
    64    37    39   ar
    65    37    38    1
    66    39    40    1
