@<TRIPOS>MOLECULE
2,3,4,5,6,7,8,9,10,11
 53 56 0 0 0
SMALL
GASTEIGER

@<TRIPOS>ATOM
      1 SI          7.1020    2.4852    8.1001 Si      1  UNL1        0.0000
      2 C           6.3115    3.1397    9.6933 C.3     1  UNL1        0.0000
      3 C           5.6814    4.4149    9.7480 C.3     1  UNL1        0.0000
      4 C           4.7629    4.4321   10.8282 C.3     1  UNL1        0.0000
      5 C           4.7983    3.1422   11.4296 C.2     1  UNL1        0.0000
      6 C           5.7416    2.3499   10.7401 C.2     1  UNL1        0.0000
      7 C           5.4429    1.9044    7.3792 C.3     1  UNL1        0.0000
      8 C           4.6134    0.8519    7.8857 C.3     1  UNL1        0.0000
      9 C           3.2773    1.0960    7.4569 C.2     1  UNL1        0.0000
     10 C           3.2599    2.2887    6.7033 C.2     1  UNL1        0.0000
     11 C           4.5762    2.8035    6.6941 C.3     1  UNL1        0.0000
     12 C           7.7729    3.9321    7.0514 C.3     1  UNL1        0.0000
     13 C           8.5181    1.2323    8.3292 C.3     1  UNL1        0.0000
     14 C           3.9109    5.5496   11.2395 C.ar    1  UNL1        0.0000
     15 C           4.3486    6.8692   11.1343 C.ar    1  UNL1        0.0000
     16 C           3.5232    7.9131   11.5081 C.ar    1  UNL1        0.0000
     17 C           2.2509    7.6576   11.9906 C.ar    1  UNL1        0.0000
     18 C           1.8051    6.3496   12.0976 C.ar    1  UNL1        0.0000
     19 C           2.6249    5.3012   11.7270 C.ar    1  UNL1        0.0000
     20 C           6.2434    1.0278   11.2456 C.3     1  UNL1        0.0000
     21 C           5.0192   -0.3853    8.5552 C.ar    1  UNL1        0.0000
     22 C           6.1205   -1.1155    8.1087 C.ar    1  UNL1        0.0000
     23 C           6.4666   -2.3061    8.7212 C.ar    1  UNL1        0.0000
     24 C           5.7121   -2.7933    9.7756 C.ar    1  UNL1        0.0000
     25 C           4.6033   -2.0856   10.2134 C.ar    1  UNL1        0.0000
     26 C           4.2554   -0.8907    9.6116 C.ar    1  UNL1        0.0000
     27 C           2.0671    2.8466    5.9851 C.3     1  UNL1        0.0000
     28 H           5.9162    5.2640    9.1152 H       1  UNL1        0.0000
     29 H           4.3022    2.8637   12.3528 H       1  UNL1        0.0000
     30 H           2.4493    0.4030    7.5609 H       1  UNL1        0.0000
     31 H           4.8896    3.6855    6.1471 H       1  UNL1        0.0000
     32 H           7.0465    4.7294    6.9311 H       1  UNL1        0.0000
     33 H           8.0543    3.5907    6.0609 H       1  UNL1        0.0000
     34 H           8.6576    4.3589    7.5114 H       1  UNL1        0.0000
     35 H           8.2340    0.3494    8.8885 H       1  UNL1        0.0000
     36 H           9.3408    1.7063    8.8540 H       1  UNL1        0.0000
     37 H           8.8914    0.9076    7.3639 H       1  UNL1        0.0000
     38 H           5.3436    7.0718   10.7647 H       1  UNL1        0.0000
     39 H           3.8733    8.9315   11.4201 H       1  UNL1        0.0000
     40 H           1.6055    8.4749   12.2765 H       1  UNL1        0.0000
     41 H           0.8086    6.1477   12.4623 H       1  UNL1        0.0000
     42 H           2.2596    4.2818   11.7862 H       1  UNL1        0.0000
     43 H           6.6408    0.4069   10.4474 H       1  UNL1        0.0000
     44 H           5.4480    0.4822   11.7528 H       1  UNL1        0.0000
     45 H           7.0462    1.1963   11.9673 H       1  UNL1        0.0000
     46 H           6.6855   -0.7490    7.2649 H       1  UNL1        0.0000
     47 H           7.3223   -2.8624    8.3671 H       1  UNL1        0.0000
     48 H           5.9817   -3.7251   10.2495 H       1  UNL1        0.0000
     49 H           4.0088   -2.4677   11.0302 H       1  UNL1        0.0000
     50 H           3.3962   -0.3298    9.9661 H       1  UNL1        0.0000
     51 H           1.1769    2.7815    6.6136 H       1  UNL1        0.0000
     52 H           1.8792    2.2825    5.0690 H       1  UNL1        0.0000
     53 H           2.2308    3.8902    5.7219 H       1  UNL1        0.0000
@<TRIPOS>BOND
     1    52    27    1
     2    53    27    1
     3    27    51    1
     4    27    10    1
     5    33    12    1
     6    31    11    1
     7    11    10    1
     8    11     7    1
     9    10     9    2
    10    32    12    1
    11    12    34    1
    12    12     1    1
    13    46    22    1
    14    37    13    1
    15     7     8    1
    16     7     1    1
    17     9    30    1
    18     9     8    1
    19     8    21    1
    20     1    13    1
    21     1     2    1
    22    22    21   ar
    23    22    23   ar
    24    13    36    1
    25    13    35    1
    26    47    23    1
    27    21    26   ar
    28    23    24   ar
    29    28     3    1
    30    26    50    1
    31    26    25   ar
    32     2     3    1
    33     2     6    1
    34     3     4    1
    35    24    25   ar
    36    24    48    1
    37    25    49    1
    38    43    20    1
    39     6    20    1
    40     6     5    2
    41    38    15    1
    42     4    14    1
    43     4     5    1
    44    15    14   ar
    45    15    16   ar
    46    14    19   ar
    47    20    44    1
    48    20    45    1
    49    39    16    1
    50     5    29    1
    51    16    17   ar
    52    19    42    1
    53    19    18   ar
    54    17    18   ar
    55    17    40    1
    56    18    41    1
