@<TRIPOS>MOLECULE
3,4,5,6,11,22,23,25,30
 39 42 0 0 0
SMALL
GASTEIGER

@<TRIPOS>ATOM
      1 SI         -1.4884    0.1715    2.3408 Si      1  UNL1        0.0000
      2 C          -2.9611   -0.9426    1.8644 C.3     1  UNL1        0.0000
      3 C          -1.6153    3.3615   -0.2517 C.2     1  UNL1        0.0000
      4 C          -2.1367    2.1822    0.3016 C.2     1  UNL1        0.0000
      5 C           0.0534    2.2975    0.9547 C.3     1  UNL1        0.0000
      6 C          -1.1282    1.4814    1.0244 C.3     1  UNL1        0.0000
      7 C           1.3444    2.1680    1.5104 C.2     1  UNL1        0.0000
      8 C           2.2930    3.1182    1.2209 C.2     1  UNL1        0.0000
      9 C           2.0077    4.2170    0.3904 C.2     1  UNL1        0.0000
     10 C           0.7600    4.3986   -0.1501 C.2     1  UNL1        0.0000
     11 C          -0.2478    3.4572    0.1349 C.3     1  UNL1        0.0000
     12 H          -3.4769   -1.3007    2.7491 H       1  UNL1        0.0000
     13 H          -3.6862   -0.4381    1.2356 H       1  UNL1        0.0000
     14 H          -2.6075   -1.8103    1.3182 H       1  UNL1        0.0000
     15 H          -2.1302    4.0312   -0.9284 H       1  UNL1        0.0000
     16 H          -3.1342    1.8033    0.1042 H       1  UNL1        0.0000
     17 H           1.5971    1.3043    2.1120 H       1  UNL1        0.0000
     18 H           3.2866    3.0250    1.6334 H       1  UNL1        0.0000
     19 H           2.7914    4.9300    0.1852 H       1  UNL1        0.0000
     20 H           0.5441    5.2463   -0.7871 H       1  UNL1        0.0000
     21 C          -0.0158   -0.9426    2.8173 C.3     1  UNL1        0.0000
     22 C          -1.3612    3.3621    4.9325 C.2     1  UNL1        0.0000
     23 C          -0.8400    2.1825    4.3796 C.2     1  UNL1        0.0000
     24 C          -3.0301    2.2977    3.7268 C.3     1  UNL1        0.0000
     25 C          -1.8485    1.4816    3.6571 C.3     1  UNL1        0.0000
     26 C          -4.3212    2.1681    3.1712 C.2     1  UNL1        0.0000
     27 C          -5.2698    3.1182    3.4608 C.2     1  UNL1        0.0000
     28 C          -4.9845    4.2171    4.2911 C.2     1  UNL1        0.0000
     29 C          -3.7367    4.3990    4.8314 C.2     1  UNL1        0.0000
     30 C          -2.7288    3.4577    4.5462 C.3     1  UNL1        0.0000
     31 H           0.5001   -1.3007    1.9327 H       1  UNL1        0.0000
     32 H           0.7094   -0.4381    3.4462 H       1  UNL1        0.0000
     33 H          -0.3694   -1.8103    3.3636 H       1  UNL1        0.0000
     34 H          -0.8464    4.0316    5.6095 H       1  UNL1        0.0000
     35 H           0.1573    1.8035    4.5774 H       1  UNL1        0.0000
     36 H          -4.5739    1.3042    2.5698 H       1  UNL1        0.0000
     37 H          -6.2635    3.0249    3.0484 H       1  UNL1        0.0000
     38 H          -5.7683    4.9300    4.4965 H       1  UNL1        0.0000
     39 H          -3.5208    5.2465    5.4686 H       1  UNL1        0.0000
@<TRIPOS>BOND
     1    15     3    1
     2    20    10    1
     3     3    11    1
     4     3     4    2
     5    10    11    1
     6    10     9    2
     7    16     4    1
     8    11     5    1
     9    19     9    1
    10     4     6    1
    11     9     8    1
    12     5     6    1
    13     5     7    1
    14     6     1    1
    15     8     7    2
    16     8    18    1
    17    13     2    1
    18    14     2    1
    19     7    17    1
    20     2     1    1
    21     2    12    1
    22    31    21    1
    23     1    21    1
    24     1    25    1
    25    36    26    1
    26    21    33    1
    27    21    32    1
    28    37    27    1
    29    26    27    2
    30    26    24    1
    31    27    28    1
    32    25    24    1
    33    25    23    1
    34    24    30    1
    35    28    38    1
    36    28    29    2
    37    23    35    1
    38    23    22    2
    39    30    29    1
    40    30    22    1
    41    29    39    1
    42    22    34    1
