@<TRIPOS>MOLECULE
9,10,11,12,16,19,20,21,26
 54 57 0 0 0
SMALL
GASTEIGER

@<TRIPOS>ATOM
      1 SI         -0.1426    2.8210    5.1558 Si      1  UNL1        0.0000
      2 SI          3.7121    2.8102    7.0965 Si      1  UNL1        0.0000
      3 C           1.7384    2.4899    4.9545 C.3     1  UNL1        0.0000
      4 C          -1.0476    1.1332    5.0542 C.3     1  UNL1        0.0000
      5 C          -0.6920    3.8905    3.6771 C.3     1  UNL1        0.0000
      6 C           2.4330    1.7571    6.1192 C.3     1  UNL1        0.0000
      7 C           4.7232    3.9012    5.9030 C.3     1  UNL1        0.0000
      8 C           4.8935    1.5891    7.9806 C.3     1  UNL1        0.0000
      9 C          -0.6025    3.5388    6.8361 C.3     1  UNL1        0.0000
     10 C          -0.4455    2.8424    8.0706 C.2     1  UNL1        0.0000
     11 C          -1.6827    4.6968    8.5609 C.ar    1  UNL1        0.0000
     12 C          -1.0480    3.5517    9.1221 C.2     1  UNL1        0.0000
     13 C          -2.5034    5.6903    9.1246 C.ar    1  UNL1        0.0000
     14 C          -3.0041    6.6744    8.3107 C.ar    1  UNL1        0.0000
     15 C          -2.6893    6.7159    6.9417 C.ar    1  UNL1        0.0000
     16 C          -1.4013    4.7030    7.1412 C.ar    1  UNL1        0.0000
     17 C          -1.8973    5.7603    6.3527 C.ar    1  UNL1        0.0000
     18 C           2.9193    3.9171    8.3900 C.3     1  UNL1        0.0000
     19 C           3.2104    5.3112    8.5511 C.2     1  UNL1        0.0000
     20 C           1.9465    4.7200   10.3568 C.ar    1  UNL1        0.0000
     21 C           2.6180    5.8031    9.7160 C.2     1  UNL1        0.0000
     22 C           1.2458    4.6250   11.5728 C.ar    1  UNL1        0.0000
     23 C           0.8661    3.3843   12.0251 C.ar    1  UNL1        0.0000
     24 C           1.1712    2.2189   11.3000 C.ar    1  UNL1        0.0000
     25 C           1.8146    2.2771   10.0874 C.ar    1  UNL1        0.0000
     26 C           2.1917    3.5301    9.5689 C.ar    1  UNL1        0.0000
     27 H           2.2440    3.4308    4.7487 H       1  UNL1        0.0000
     28 H           1.8535    1.8915    4.0499 H       1  UNL1        0.0000
     29 H          -0.6821    0.4297    5.7954 H       1  UNL1        0.0000
     30 H          -2.1159    1.2440    5.2106 H       1  UNL1        0.0000
     31 H          -0.9040    0.6806    4.0792 H       1  UNL1        0.0000
     32 H          -1.7655    4.0472    3.6650 H       1  UNL1        0.0000
     33 H          -0.1996    4.8572    3.6882 H       1  UNL1        0.0000
     34 H          -0.4253    3.3990    2.7470 H       1  UNL1        0.0000
     35 H           1.6907    1.3311    6.7957 H       1  UNL1        0.0000
     36 H           2.9742    0.8993    5.7171 H       1  UNL1        0.0000
     37 H           4.1333    4.7348    5.5329 H       1  UNL1        0.0000
     38 H           5.6047    4.3056    6.3909 H       1  UNL1        0.0000
     39 H           5.0607    3.3276    5.0461 H       1  UNL1        0.0000
     40 H           4.3568    0.8709    8.5917 H       1  UNL1        0.0000
     41 H           5.4780    1.0300    7.2577 H       1  UNL1        0.0000
     42 H           5.5870    2.1132    8.6303 H       1  UNL1        0.0000
     43 H          -0.0379    1.8431    8.1624 H       1  UNL1        0.0000
     44 H          -1.1669    3.2056   10.1403 H       1  UNL1        0.0000
     45 H          -2.7297    5.6690   10.1825 H       1  UNL1        0.0000
     46 H          -3.6377    7.4442    8.7245 H       1  UNL1        0.0000
     47 H          -3.0834    7.5241    6.3436 H       1  UNL1        0.0000
     48 H          -1.6764    5.8056    5.2959 H       1  UNL1        0.0000
     49 H           3.8567    5.8834    7.8936 H       1  UNL1        0.0000
     50 H           2.7144    6.8060   10.1104 H       1  UNL1        0.0000
     51 H           1.0531    5.5150   12.1570 H       1  UNL1        0.0000
     52 H           0.3472    3.2909   12.9675 H       1  UNL1        0.0000
     53 H           0.8972    1.2608   11.7163 H       1  UNL1        0.0000
     54 H           2.0682    1.3707    9.5533 H       1  UNL1        0.0000
@<TRIPOS>BOND
     1    34     5    1
     2    32     5    1
     3     5    33    1
     4     5     1    1
     5    28     3    1
     6    31     4    1
     7    27     3    1
     8     3     1    1
     9     3     6    1
    10    39     7    1
    11     4     1    1
    12     4    30    1
    13     4    29    1
    14     1     9    1
    15    48    17    1
    16    37     7    1
    17    36     6    1
    18     7    38    1
    19     7     2    1
    20     6    35    1
    21     6     2    1
    22    47    15    1
    23    17    15   ar
    24    17    16   ar
    25     9    16    1
    26     9    10    1
    27    15    14   ar
    28     2     8    1
    29     2    18    1
    30    16    11   ar
    31    41     8    1
    32    49    19    1
    33     8    40    1
    34     8    42    1
    35    10    43    1
    36    10    12    2
    37    14    46    1
    38    14    13   ar
    39    18    19    1
    40    18    26    1
    41    19    21    2
    42    11    12    1
    43    11    13   ar
    44    12    44    1
    45    13    45    1
    46    54    25    1
    47    26    25   ar
    48    26    20   ar
    49    21    50    1
    50    21    20    1
    51    25    24   ar
    52    20    22   ar
    53    24    53    1
    54    24    23   ar
    55    22    23   ar
    56    22    51    1
    57    23    52    1
