@<TRIPOS>MOLECULE
7,8,9,14,15,16,17,18,23,24
 54 58 0 0 0
SMALL
GASTEIGER

@<TRIPOS>ATOM
      1 SI         -3.5891   -2.6599   -3.4658 Si      1  UNL1        0.0000
      2 C          -4.5401   -3.1576   -5.0465 C.3     1  UNL1        0.0000
      3 C          -4.8338   -2.4483   -2.0357 C.3     1  UNL1        0.0000
      4 SI         -0.9523   -2.1409   -1.3260 Si      1  UNL1        0.0000
      5 C          -2.1190   -2.1705    0.1831 C.3     1  UNL1        0.0000
      6 C           0.8114   -1.7034   -0.7354 C.3     1  UNL1        0.0000
      7 C          -1.3443   -0.9771   -2.7718 C.3     1  UNL1        0.0000
      8 C          -0.3434   -0.2208   -3.4343 C.2     1  UNL1        0.0000
      9 C          -0.7645    0.0341   -4.7549 C.2     1  UNL1        0.0000
     10 C          -0.0589    0.8231   -5.8222 C.3     1  UNL1        0.0000
     11 C          -1.0920    1.3678   -6.8100 C.3     1  UNL1        0.0000
     12 C          -1.9903    0.2351   -7.3023 C.3     1  UNL1        0.0000
     13 C          -2.8627   -0.3157   -6.1685 C.3     1  UNL1        0.0000
     14 C          -2.0369   -0.5614   -4.9357 C.3     1  UNL1        0.0000
     15 C          -2.4162   -1.1930   -3.7135 C.3     1  UNL1        0.0000
     16 C          -2.1676   -3.9004   -3.2710 C.3     1  UNL1        0.0000
     17 C          -1.7569   -4.7616   -4.3207 C.3     1  UNL1        0.0000
     18 C          -0.3982   -5.0884   -4.1365 C.2     1  UNL1        0.0000
     19 C           0.4642   -5.9932   -4.9715 C.3     1  UNL1        0.0000
     20 C           1.5970   -6.5476   -4.1060 C.3     1  UNL1        0.0000
     21 C           2.3194   -5.4039   -3.3971 C.3     1  UNL1        0.0000
     22 C           1.4084   -4.7234   -2.3691 C.3     1  UNL1        0.0000
     23 C           0.0590   -4.4337   -2.9667 C.2     1  UNL1        0.0000
     24 C          -1.0267   -3.6912   -2.4126 C.3     1  UNL1        0.0000
     25 H          -5.0866   -4.0803   -4.8780 H       1  UNL1        0.0000
     26 H          -3.8704   -3.3167   -5.8883 H       1  UNL1        0.0000
     27 H          -5.2660   -2.4014   -5.3254 H       1  UNL1        0.0000
     28 H          -5.7943   -2.1343   -2.4288 H       1  UNL1        0.0000
     29 H          -4.5102   -1.7023   -1.3211 H       1  UNL1        0.0000
     30 H          -4.9879   -3.3814   -1.5058 H       1  UNL1        0.0000
     31 H          -1.5635   -2.4537    1.0703 H       1  UNL1        0.0000
     32 H          -2.9272   -2.8802    0.0597 H       1  UNL1        0.0000
     33 H          -2.5506   -1.1932    0.3672 H       1  UNL1        0.0000
     34 H           0.8096   -0.7387   -0.2382 H       1  UNL1        0.0000
     35 H           1.5136   -1.6499   -1.5643 H       1  UNL1        0.0000
     36 H           1.1808   -2.4311   -0.0212 H       1  UNL1        0.0000
     37 H           0.5584    0.1747   -2.9822 H       1  UNL1        0.0000
     38 H           0.5159    1.6389   -5.3748 H       1  UNL1        0.0000
     39 H           0.6502    0.1732   -6.3568 H       1  UNL1        0.0000
     40 H          -1.7018    2.1271   -6.3140 H       1  UNL1        0.0000
     41 H          -0.5858    1.8378   -7.6549 H       1  UNL1        0.0000
     42 H          -2.6320    0.5905   -8.1109 H       1  UNL1        0.0000
     43 H          -1.3657   -0.5703   -7.6967 H       1  UNL1        0.0000
     44 H          -3.6446    0.4139   -5.9244 H       1  UNL1        0.0000
     45 H          -3.3584   -1.2281   -6.5072 H       1  UNL1        0.0000
     46 H          -2.3965   -5.1748   -5.0915 H       1  UNL1        0.0000
     47 H          -0.1337   -6.8062   -5.3930 H       1  UNL1        0.0000
     48 H           0.8913   -5.4262   -5.8126 H       1  UNL1        0.0000
     49 H           1.1823   -7.2330   -3.3626 H       1  UNL1        0.0000
     50 H           2.2997   -7.1057   -4.7273 H       1  UNL1        0.0000
     51 H           3.2127   -5.7797   -2.8943 H       1  UNL1        0.0000
     52 H           2.6351   -4.6664   -4.1391 H       1  UNL1        0.0000
     53 H           1.2718   -5.3891   -1.5080 H       1  UNL1        0.0000
     54 H           1.8908   -3.8128   -2.0077 H       1  UNL1        0.0000
@<TRIPOS>BOND
     1    42    12    1
     2    43    12    1
     3    41    11    1
     4    12    11    1
     5    12    13    1
     6    11    40    1
     7    11    10    1
     8    45    13    1
     9    39    10    1
    10    13    44    1
    11    13    14    1
    12    26     2    1
    13    10    38    1
    14    10     9    1
    15    48    19    1
    16    47    19    1
    17    27     2    1
    18    46    17    1
    19     2    25    1
    20     2     1    1
    21    19    18    1
    22    19    20    1
    23    14     9    1
    24    14    15    1
    25     9     8    2
    26    50    20    1
    27    17    18    1
    28    17    16    1
    29    52    21    1
    30    18    23    2
    31    20    21    1
    32    20    49    1
    33    15     1    1
    34    15     7    1
    35     1    16    1
    36     1     3    1
    37     8    37    1
    38     8     7    1
    39    21    51    1
    40    21    22    1
    41    16    24    1
    42    23    24    1
    43    23    22    1
    44     7     4    1
    45    28     3    1
    46    24     4    1
    47    22    54    1
    48    22    53    1
    49     3    30    1
    50     3    29    1
    51    35     6    1
    52     4     6    1
    53     4     5    1
    54     6    34    1
    55     6    36    1
    56    32     5    1
    57     5    33    1
    58     5    31    1
