@<TRIPOS>MOLECULE
3,4,5,6,7,14,15,16,17,18
 46 48 0 0 0
SMALL
GASTEIGER

@<TRIPOS>ATOM
      1 SI          6.4707    3.4537    1.0210 Si      1  UNL1        0.0000
      2 SI          6.1853    1.4740    3.8255 Si      1  UNL1        0.0000
      3 C           5.3486    1.9265    1.0904 C.3     1  UNL1        0.0000
      4 C           5.2104    1.0801    2.2479 C.3     1  UNL1        0.0000
      5 C           3.9293    0.4626    2.1766 C.2     1  UNL1        0.0000
      6 C           3.2665    0.9363    1.0145 C.2     1  UNL1        0.0000
      7 C           4.1417    1.8227    0.3475 C.3     1  UNL1        0.0000
      8 C           3.3957   -0.6232    3.0649 C.3     1  UNL1        0.0000
      9 C           1.8842    0.5467    0.5758 C.3     1  UNL1        0.0000
     10 C           8.3593    3.1943    0.9625 C.3     1  UNL1        0.0000
     11 C           5.8970    4.4425   -0.5107 C.3     1  UNL1        0.0000
     12 C           8.0386    1.0268    3.7671 C.3     1  UNL1        0.0000
     13 C           5.3845    0.7448    5.4002 C.3     1  UNL1        0.0000
     14 C           5.6938    3.3054    3.8066 C.3     1  UNL1        0.0000
     15 C           5.8030    4.1574    2.6501 C.3     1  UNL1        0.0000
     16 C           4.8403    5.1969    2.7914 C.3     1  UNL1        0.0000
     17 C           4.1215    4.9827    3.9962 C.2     1  UNL1        0.0000
     18 C           4.6540    3.8317    4.6196 C.2     1  UNL1        0.0000
     19 C           4.6852    6.4129    1.9252 C.3     1  UNL1        0.0000
     20 C           3.0052    5.8433    4.5143 C.3     1  UNL1        0.0000
     21 H           3.9500    2.2723   -0.6206 H       1  UNL1        0.0000
     22 H           2.9497   -1.4119    2.4576 H       1  UNL1        0.0000
     23 H           4.1950   -1.0582    3.6589 H       1  UNL1        0.0000
     24 H           2.6204   -0.2457    3.7360 H       1  UNL1        0.0000
     25 H           1.5784    1.1396   -0.2859 H       1  UNL1        0.0000
     26 H           1.8424   -0.5096    0.3012 H       1  UNL1        0.0000
     27 H           1.1673    0.7121    1.3859 H       1  UNL1        0.0000
     28 H           8.7944    3.1493    1.9529 H       1  UNL1        0.0000
     29 H           8.6143    2.2806    0.4379 H       1  UNL1        0.0000
     30 H           8.8283    4.0160    0.4331 H       1  UNL1        0.0000
     31 H           6.0561    3.8607   -1.4134 H       1  UNL1        0.0000
     32 H           4.8393    4.6903   -0.4509 H       1  UNL1        0.0000
     33 H           6.4559    5.3644   -0.6263 H       1  UNL1        0.0000
     34 H           8.6403    1.7792    4.2641 H       1  UNL1        0.0000
     35 H           8.2071    0.0852    4.2775 H       1  UNL1        0.0000
     36 H           8.3995    0.9204    2.7518 H       1  UNL1        0.0000
     37 H           4.3075    0.8990    5.4066 H       1  UNL1        0.0000
     38 H           5.5760   -0.3185    5.4931 H       1  UNL1        0.0000
     39 H           5.7979    1.2191    6.2848 H       1  UNL1        0.0000
     40 H           4.3706    3.4714    5.6024 H       1  UNL1        0.0000
     41 H           4.5947    7.3025    2.5497 H       1  UNL1        0.0000
     42 H           5.5500    6.5342    1.2785 H       1  UNL1        0.0000
     43 H           3.7865    6.3513    1.3069 H       1  UNL1        0.0000
     44 H           2.2509    5.9962    3.7369 H       1  UNL1        0.0000
     45 H           2.5293    5.3703    5.3731 H       1  UNL1        0.0000
     46 H           3.3753    6.8240    4.8212 H       1  UNL1        0.0000
@<TRIPOS>BOND
     1    31    11    1
     2    33    11    1
     3    21     7    1
     4    11    32    1
     5    11     1    1
     6    25     9    1
     7    26     9    1
     8     7     6    1
     9     7     3    1
    10    30    10    1
    11    29    10    1
    12     9     6    1
    13     9    27    1
    14    10     1    1
    15    10    28    1
    16     6     5    2
    17     1     3    1
    18     1    15    1
    19     3     4    1
    20    42    19    1
    21    43    19    1
    22    19    41    1
    23    19    16    1
    24     5     4    1
    25     5     8    1
    26     4     2    1
    27    22     8    1
    28    15    16    1
    29    15    14    1
    30    36    12    1
    31    16    17    1
    32     8    23    1
    33     8    24    1
    34    44    20    1
    35    12     2    1
    36    12    34    1
    37    12    35    1
    38    14     2    1
    39    14    18    1
    40     2    13    1
    41    17    20    1
    42    17    18    2
    43    20    46    1
    44    20    45    1
    45    18    40    1
    46    13    37    1
    47    13    38    1
    48    13    39    1
