@<TRIPOS>MOLECULE
3,4,5,6,7,35,36,37,38,39
 66 67 0 0 0
SMALL
GASTEIGER

@<TRIPOS>ATOM
      1 SI          6.0699    6.2787    6.4637 Si      1  UNL1        0.0000
      2 SI          6.8489    2.6539    5.1830 Si      1  UNL1        0.0000
      3 C           4.6585    6.1234    5.2230 C.3     1  UNL1        0.0000
      4 C           4.7358    5.8124    3.8200 C.3     1  UNL1        0.0000
      5 C           3.5040    6.1565    3.2163 C.3     1  UNL1        0.0000
      6 C           2.6879    6.7714    4.2074 C.2     1  UNL1        0.0000
      7 C           3.3964    6.7737    5.4225 C.2     1  UNL1        0.0000
      8 C           6.0245    5.6399    3.0781 C.3     1  UNL1        0.0000
      9 H           5.8595    5.3733    2.0373 H       1  UNL1        0.0000
     10 H           6.6612    4.8989    3.5463 H       1  UNL1        0.0000
     11 H           6.5551    6.5956    3.0927 H       1  UNL1        0.0000
     12 C           3.1399    6.0761    1.7634 C.3     1  UNL1        0.0000
     13 H           3.0318    7.0812    1.3507 H       1  UNL1        0.0000
     14 H           2.1880    5.5563    1.6375 H       1  UNL1        0.0000
     15 H           3.9011    5.5538    1.1874 H       1  UNL1        0.0000
     16 C           1.3725    7.4487    3.9820 C.3     1  UNL1        0.0000
     17 H           1.5105    8.5326    3.9988 H       1  UNL1        0.0000
     18 H           0.6623    7.1864    4.7671 H       1  UNL1        0.0000
     19 H           0.9436    7.1656    3.0240 H       1  UNL1        0.0000
     20 C           2.9518    7.5546    6.6190 C.3     1  UNL1        0.0000
     21 H           3.1258    8.6171    6.4293 H       1  UNL1        0.0000
     22 H           3.4932    7.2674    7.5133 H       1  UNL1        0.0000
     23 H           1.8860    7.4197    6.8010 H       1  UNL1        0.0000
     24 C           6.5729    8.1318    6.4482 C.3     1  UNL1        0.0000
     25 H           7.3324    8.3331    7.1967 H       1  UNL1        0.0000
     26 H           5.7272    8.7783    6.6567 H       1  UNL1        0.0000
     27 H           6.9778    8.4273    5.4850 H       1  UNL1        0.0000
     28 C           5.5031    5.8005    8.2315 C.3     1  UNL1        0.0000
     29 H           4.5683    5.2455    8.2187 H       1  UNL1        0.0000
     30 H           5.3550    6.6839    8.8459 H       1  UNL1        0.0000
     31 H           6.2457    5.1908    8.7374 H       1  UNL1        0.0000
     32 C           7.7116    5.3451    6.1075 C.3     1  UNL1        0.0000
     33 H           8.0641    5.5263    5.0940 H       1  UNL1        0.0000
     34 H           8.4479    5.8222    6.7597 H       1  UNL1        0.0000
     35 C           5.0005    2.9261    4.8992 C.3     1  UNL1        0.0000
     36 C           4.0774    2.5626    5.9339 C.3     1  UNL1        0.0000
     37 C           2.8600    2.1397    5.3395 C.3     1  UNL1        0.0000
     38 C           3.0142    2.2207    3.9318 C.2     1  UNL1        0.0000
     39 C           4.3023    2.7290    3.6567 C.2     1  UNL1        0.0000
     40 C           4.3950    2.3990    7.3888 C.3     1  UNL1        0.0000
     41 H           3.5951    2.7964    8.0136 H       1  UNL1        0.0000
     42 H           5.3196    2.9061    7.6447 H       1  UNL1        0.0000
     43 H           4.5012    1.3369    7.6187 H       1  UNL1        0.0000
     44 C           1.6713    1.5615    6.0441 C.3     1  UNL1        0.0000
     45 H           0.7456    1.9644    5.6294 H       1  UNL1        0.0000
     46 H           1.6988    1.7910    7.1073 H       1  UNL1        0.0000
     47 H           1.6575    0.4757    5.9220 H       1  UNL1        0.0000
     48 C           2.0786    1.6620    2.9044 C.3     1  UNL1        0.0000
     49 H           2.4497    0.6887    2.5715 H       1  UNL1        0.0000
     50 H           2.0071    2.3142    2.0348 H       1  UNL1        0.0000
     51 H           1.0808    1.5285    3.3144 H       1  UNL1        0.0000
     52 C           4.8625    2.6946    2.2660 C.3     1  UNL1        0.0000
     53 H           4.9195    1.6547    1.9341 H       1  UNL1        0.0000
     54 H           5.8567    3.1182    2.2139 H       1  UNL1        0.0000
     55 H           4.2088    3.2196    1.5682 H       1  UNL1        0.0000
     56 C           6.9949    0.8994    5.9535 C.3     1  UNL1        0.0000
     57 H           6.2243    0.2357    5.5725 H       1  UNL1        0.0000
     58 H           6.9069    0.9162    7.0341 H       1  UNL1        0.0000
     59 H           7.9555    0.4528    5.7163 H       1  UNL1        0.0000
     60 C           7.9661    2.5104    3.6282 C.3     1  UNL1        0.0000
     61 H           8.0781    3.4221    3.0516 H       1  UNL1        0.0000
     62 H           7.6190    1.7311    2.9581 H       1  UNL1        0.0000
     63 H           8.9613    2.2261    3.9582 H       1  UNL1        0.0000
     64 C           7.7392    3.8441    6.3979 C.3     1  UNL1        0.0000
     65 H           7.3698    3.6801    7.4101 H       1  UNL1        0.0000
     66 H           8.7835    3.5203    6.4151 H       1  UNL1        0.0000
@<TRIPOS>BOND
     1    15    12    1
     2    13    12    1
     3    55    52    1
     4    14    12    1
     5    12     5    1
     6    53    52    1
     7    50    48    1
     8     9     8    1
     9    54    52    1
    10    52    39    1
    11    49    48    1
    12    48    51    1
    13    48    38    1
    14    62    60    1
    15    19    16    1
    16    61    60    1
    17     8    11    1
    18     8    10    1
    19     8     4    1
    20     5     4    1
    21     5     6    1
    22    60    63    1
    23    60     2    1
    24    39    38    2
    25    39    35    1
    26     4     3    1
    27    38    37    1
    28    16    17    1
    29    16     6    1
    30    16    18    1
    31     6     7    2
    32    35     2    1
    33    35    36    1
    34    33    32    1
    35     2    56    1
    36     2    64    1
    37     3     7    1
    38     3     1    1
    39    37    36    1
    40    37    44    1
    41     7    20    1
    42    27    24    1
    43    57    56    1
    44    45    44    1
    45    59    56    1
    46    47    44    1
    47    36    40    1
    48    56    58    1
    49    44    46    1
    50    32    64    1
    51    32     1    1
    52    32    34    1
    53    64    66    1
    54    64    65    1
    55    21    20    1
    56    24     1    1
    57    24    26    1
    58    24    25    1
    59     1    28    1
    60    20    23    1
    61    20    22    1
    62    40    43    1
    63    40    42    1
    64    40    41    1
    65    29    28    1
    66    28    31    1
    67    28    30    1
