@<TRIPOS>MOLECULE
2,3,4,6,7,28,29,30,31
 51 52 0 0 0
SMALL
GASTEIGER

@<TRIPOS>ATOM
      1 SI          4.2998    3.7415    7.5376 Si      1  UNL1        0.0000
      2 C           3.5478    3.7415    5.7970 C.3     1  UNL1        0.0000
      3 C           2.9718    4.8854    5.1680 C.2     1  UNL1        0.0000
      4 C           2.1300    4.4493    4.1174 C.2     1  UNL1        0.0000
      5 C           2.5653    3.7415    8.3035 C.3     1  UNL1        0.0000
      6 C           1.7152    4.8854    8.3695 C.3     1  UNL1        0.0000
      7 C           0.3824    4.4496    8.5582 C.2     1  UNL1        0.0000
      8 C           3.3939    6.3185    5.3130 C.3     1  UNL1        0.0000
      9 C           1.5837    5.3236    3.0280 C.3     1  UNL1        0.0000
     10 C           2.1239    6.3182    8.5526 C.3     1  UNL1        0.0000
     11 C          -0.7609    5.3240    8.9804 C.3     1  UNL1        0.0000
     12 C           5.4868    5.1773    8.0025 C.3     1  UNL1        0.0000
     13 H           4.1036    6.4431    6.1221 H       1  UNL1        0.0000
     14 H           2.5406    6.9765    5.4881 H       1  UNL1        0.0000
     15 H           3.8760    6.6499    4.3899 H       1  UNL1        0.0000
     16 H           1.3279    6.3133    3.4018 H       1  UNL1        0.0000
     17 H           0.6988    4.8841    2.5702 H       1  UNL1        0.0000
     18 H           2.3385    5.4444    2.2460 H       1  UNL1        0.0000
     19 H           3.1996    6.4330    8.4904 H       1  UNL1        0.0000
     20 H           1.8070    6.6623    9.5402 H       1  UNL1        0.0000
     21 H           1.6559    6.9724    7.8146 H       1  UNL1        0.0000
     22 H          -0.6921    6.3135    8.5323 H       1  UNL1        0.0000
     23 H          -0.7441    5.4448   10.0672 H       1  UNL1        0.0000
     24 H          -1.7198    4.8844    8.7103 H       1  UNL1        0.0000
     25 H           5.1133    6.1824    7.8544 H       1  UNL1        0.0000
     26 H           6.3990    5.0854    7.4210 H       1  UNL1        0.0000
     27 H           5.7598    5.0871    9.0493 H       1  UNL1        0.0000
     28 C           2.9717    2.5976    5.1680 C.2     1  UNL1        0.0000
     29 C           2.1299    3.0337    4.1174 C.2     1  UNL1        0.0000
     30 C           1.7153    2.5976    8.3695 C.3     1  UNL1        0.0000
     31 C           0.3824    3.0334    8.5582 C.2     1  UNL1        0.0000
     32 C           2.1240    1.1648    8.5527 C.3     1  UNL1        0.0000
     33 H           3.1996    1.0500    8.4905 H       1  UNL1        0.0000
     34 H           1.8070    0.8208    9.5403 H       1  UNL1        0.0000
     35 H           1.6560    0.5106    7.8147 H       1  UNL1        0.0000
     36 C          -0.7608    2.1590    8.9804 C.3     1  UNL1        0.0000
     37 H          -0.6920    1.1695    8.5324 H       1  UNL1        0.0000
     38 H          -0.7441    2.0382   10.0672 H       1  UNL1        0.0000
     39 H          -1.7198    2.5985    8.7102 H       1  UNL1        0.0000
     40 C           3.3938    1.1644    5.3131 C.3     1  UNL1        0.0000
     41 H           4.1035    1.0399    6.1221 H       1  UNL1        0.0000
     42 H           2.5405    0.5065    5.4881 H       1  UNL1        0.0000
     43 H           3.8759    0.8331    4.3900 H       1  UNL1        0.0000
     44 C           1.5836    2.1594    3.0281 C.3     1  UNL1        0.0000
     45 H           1.3278    1.1698    3.4018 H       1  UNL1        0.0000
     46 H           0.6987    2.5989    2.5702 H       1  UNL1        0.0000
     47 H           2.3384    2.0387    2.2460 H       1  UNL1        0.0000
     48 C           5.4869    2.3057    8.0024 C.3     1  UNL1        0.0000
     49 H           5.1133    1.3006    7.8544 H       1  UNL1        0.0000
     50 H           6.3990    2.3977    7.4209 H       1  UNL1        0.0000
     51 H           5.7599    2.3959    9.0493 H       1  UNL1        0.0000
@<TRIPOS>BOND
     1    18     9    1
     2    47    44    1
     3    17     9    1
     4    46    44    1
     5     9    16    1
     6     9     4    1
     7    44    45    1
     8    44    29    1
     9     4    29    1
    10     4     3    2
    11    29    28    2
    12    15     8    1
    13    43    40    1
    14     3     8    1
    15     3     2    1
    16    28    40    1
    17    28     2    1
    18     8    14    1
    19     8    13    1
    20    40    42    1
    21    40    41    1
    22     2     1    1
    23    50    48    1
    24    26    12    1
    25     1    48    1
    26     1    12    1
    27     1     5    1
    28    21    10    1
    29    35    32    1
    30    49    48    1
    31    25    12    1
    32    48    51    1
    33    12    27    1
    34     5     6    1
    35     5    30    1
    36     6    10    1
    37     6     7    1
    38    30    32    1
    39    30    31    1
    40    19    10    1
    41    33    32    1
    42    22    11    1
    43    37    36    1
    44    10    20    1
    45    32    34    1
    46     7    31    2
    47     7    11    1
    48    31    36    1
    49    39    36    1
    50    24    11    1
    51    11    23    1
    52    36    38    1
