@<TRIPOS>MOLECULE
2,3,4,5,6,7,8,9,10,11
 51 52 0 0 0
SMALL
GASTEIGER

@<TRIPOS>ATOM
      1 SI          7.9152   -1.5923    1.5696 Si      1  UNL1        0.0000
      2 C           8.9633   -0.0136    1.6733 C.3     1  UNL1        0.0000
      3 C           8.4322    1.2944    1.8875 C.3     1  UNL1        0.0000
      4 C           9.4664    2.1331    2.3714 C.2     1  UNL1        0.0000
      5 C          10.6251    1.3351    2.5511 C.2     1  UNL1        0.0000
      6 C          10.3150    0.0182    2.1264 C.3     1  UNL1        0.0000
      7 C           7.6333   -1.5463    3.4409 C.2     1  UNL1        0.0000
      8 C           6.7473   -0.6554    4.1118 C.2     1  UNL1        0.0000
      9 C           7.1382   -0.5722    5.4662 C.2     1  UNL1        0.0000
     10 C           8.3180   -1.3435    5.6368 C.2     1  UNL1        0.0000
     11 C           8.6231   -1.9451    4.3909 C.3     1  UNL1        0.0000
     12 C           7.1356    1.8547    1.3827 C.3     1  UNL1        0.0000
     13 C           9.4270    3.6322    2.3102 C.3     1  UNL1        0.0000
     14 C          12.0049    1.8388    2.8545 C.3     1  UNL1        0.0000
     15 C          11.3798   -1.0056    1.8613 C.3     1  UNL1        0.0000
     16 C           5.4352   -0.1268    3.6099 C.3     1  UNL1        0.0000
     17 C           6.2872   -0.0590    6.5910 C.3     1  UNL1        0.0000
     18 C           8.9272   -1.6274    6.9788 C.3     1  UNL1        0.0000
     19 C           9.5818   -3.0865    4.2028 C.3     1  UNL1        0.0000
     20 C           8.7668   -3.1620    0.8742 C.3     1  UNL1        0.0000
     21 C           6.3741   -1.5714    0.4295 C.3     1  UNL1        0.0000
     22 H           6.6522    2.4799    2.1357 H       1  UNL1        0.0000
     23 H           6.4476    1.0741    1.0810 H       1  UNL1        0.0000
     24 H           7.3282    2.4867    0.5111 H       1  UNL1        0.0000
     25 H          10.3419    4.0690    2.7036 H       1  UNL1        0.0000
     26 H           8.5768    4.0531    2.8464 H       1  UNL1        0.0000
     27 H           9.3353    3.9382    1.2642 H       1  UNL1        0.0000
     28 H          12.4916    2.1628    1.9304 H       1  UNL1        0.0000
     29 H          12.6157    1.0595    3.3065 H       1  UNL1        0.0000
     30 H          11.9793    2.6831    3.5409 H       1  UNL1        0.0000
     31 H          10.9588   -1.9222    1.4620 H       1  UNL1        0.0000
     32 H          11.9633   -1.2296    2.7554 H       1  UNL1        0.0000
     33 H          12.0757   -0.6084    1.1175 H       1  UNL1        0.0000
     34 H           4.6228   -0.5356    4.2153 H       1  UNL1        0.0000
     35 H           5.2618   -0.4212    2.5805 H       1  UNL1        0.0000
     36 H           5.3839    0.9615    3.6832 H       1  UNL1        0.0000
     37 H           5.6484   -0.8712    6.9509 H       1  UNL1        0.0000
     38 H           5.6394    0.7551    6.2694 H       1  UNL1        0.0000
     39 H           6.8936    0.2786    7.4304 H       1  UNL1        0.0000
     40 H           9.0978   -0.7006    7.5286 H       1  UNL1        0.0000
     41 H           9.8814   -2.1406    6.8908 H       1  UNL1        0.0000
     42 H           8.2516   -2.2537    7.5669 H       1  UNL1        0.0000
     43 H          10.0251   -3.3735    5.1546 H       1  UNL1        0.0000
     44 H          10.3860   -2.8583    3.5057 H       1  UNL1        0.0000
     45 H           9.0385   -3.9508    3.8177 H       1  UNL1        0.0000
     46 H           9.5588   -3.5700    1.4874 H       1  UNL1        0.0000
     47 H           9.1787   -2.9531   -0.1086 H       1  UNL1        0.0000
     48 H           8.0216   -3.9414    0.7505 H       1  UNL1        0.0000
     49 H           5.7581   -2.4394    0.6428 H       1  UNL1        0.0000
     50 H           6.6985   -1.6499   -0.6032 H       1  UNL1        0.0000
     51 H           5.7382   -0.6982    0.4990 H       1  UNL1        0.0000
@<TRIPOS>BOND
     1    50    21    1
     2    47    20    1
     3    21    51    1
     4    21    49    1
     5    21     1    1
     6    24    12    1
     7    48    20    1
     8    20    46    1
     9    20     1    1
    10    23    12    1
    11    33    15    1
    12    27    13    1
    13    12     3    1
    14    12    22    1
    15    31    15    1
    16     1     2    1
    17     1     7    1
    18     2     3    1
    19     2     6    1
    20    15     6    1
    21    15    32    1
    22     3     4    1
    23    28    14    1
    24     6     5    1
    25    13     4    1
    26    13    25    1
    27    13    26    1
    28     4     5    2
    29     5    14    1
    30    35    16    1
    31    14    29    1
    32    14    30    1
    33     7     8    2
    34     7    11    1
    35    44    19    1
    36    16    36    1
    37    16     8    1
    38    16    34    1
    39    45    19    1
    40     8     9    1
    41    19    11    1
    42    19    43    1
    43    11    10    1
    44     9    10    2
    45     9    17    1
    46    10    18    1
    47    38    17    1
    48    17    37    1
    49    17    39    1
    50    41    18    1
    51    18    40    1
    52    18    42    1
