@<TRIPOS>MOLECULE
2,3,4,5,6,7,8,9,10,11
 51 52 0 0 0
SMALL
GASTEIGER

@<TRIPOS>ATOM
      1 SI          6.3016    8.5407    9.9748 Si      1  UNL1        0.0000
      2 C           6.0574    8.5076   11.8560 C.3     1  UNL1        0.0000
      3 C           7.0749    8.9044   12.7797 C.3     1  UNL1        0.0000
      4 C           6.8495    8.2469   14.0126 C.3     1  UNL1        0.0000
      5 C           5.6965    7.4203   13.8582 C.2     1  UNL1        0.0000
      6 C           5.2203    7.5773   12.5359 C.2     1  UNL1        0.0000
      7 C           7.3806    6.9773   10.0434 C.3     1  UNL1        0.0000
      8 C           8.7367    6.9861   10.4931 C.2     1  UNL1        0.0000
      9 C           9.0540    5.7091   11.0135 C.2     1  UNL1        0.0000
     10 C           7.8938    4.8891   10.8932 C.3     1  UNL1        0.0000
     11 C           6.8678    5.6721   10.3122 C.3     1  UNL1        0.0000
     12 C           8.0356   10.0409   12.5817 C.3     1  UNL1        0.0000
     13 C           7.4719    8.5477   15.3443 C.3     1  UNL1        0.0000
     14 C           4.9673    6.7688   14.9952 C.3     1  UNL1        0.0000
     15 C           3.8986    7.0422   12.0715 C.3     1  UNL1        0.0000
     16 C           9.7832    8.0073   10.1555 C.3     1  UNL1        0.0000
     17 C          10.4260    5.1924   11.3285 C.3     1  UNL1        0.0000
     18 C           7.8961    3.3979   11.0539 C.3     1  UNL1        0.0000
     19 C           5.5775    5.0813    9.8272 C.3     1  UNL1        0.0000
     20 C           7.1092   10.1320    9.2776 C.3     1  UNL1        0.0000
     21 C           4.7350    8.4937    8.8718 C.3     1  UNL1        0.0000
     22 H           8.5167   10.2990   13.5234 H       1  UNL1        0.0000
     23 H           7.4931   10.9201   12.2309 H       1  UNL1        0.0000
     24 H           8.8131    9.8130   11.8544 H       1  UNL1        0.0000
     25 H           6.8363    9.2473   15.8944 H       1  UNL1        0.0000
     26 H           8.4612    8.9880   15.2421 H       1  UNL1        0.0000
     27 H           7.5697    7.6392   15.9379 H       1  UNL1        0.0000
     28 H           5.6600    6.2572   15.6630 H       1  UNL1        0.0000
     29 H           4.2363    6.0478   14.6355 H       1  UNL1        0.0000
     30 H           4.4389    7.5313   15.5742 H       1  UNL1        0.0000
     31 H           3.8479    5.9559   12.1585 H       1  UNL1        0.0000
     32 H           3.6997    7.3239   11.0433 H       1  UNL1        0.0000
     33 H           3.1017    7.4581   12.6930 H       1  UNL1        0.0000
     34 H          10.3696    8.3015   11.0269 H       1  UNL1        0.0000
     35 H           9.3440    8.8892    9.7006 H       1  UNL1        0.0000
     36 H          10.4807    7.5734    9.4338 H       1  UNL1        0.0000
     37 H          10.3973    4.4863   12.1579 H       1  UNL1        0.0000
     38 H          11.1044    6.0008   11.5921 H       1  UNL1        0.0000
     39 H          10.8305    4.6742   10.4543 H       1  UNL1        0.0000
     40 H           8.3723    2.9398   10.1824 H       1  UNL1        0.0000
     41 H           6.8855    3.0033   11.1345 H       1  UNL1        0.0000
     42 H           8.4565    3.1021   11.9403 H       1  UNL1        0.0000
     43 H           5.7878    4.3514    9.0411 H       1  UNL1        0.0000
     44 H           4.9242    5.8390    9.4102 H       1  UNL1        0.0000
     45 H           5.0489    4.5582   10.6255 H       1  UNL1        0.0000
     46 H           7.9314   10.5275    9.8587 H       1  UNL1        0.0000
     47 H           6.3552   10.9103    9.2150 H       1  UNL1        0.0000
     48 H           7.4679    9.9518    8.2688 H       1  UNL1        0.0000
     49 H           5.0352    8.5493    7.8304 H       1  UNL1        0.0000
     50 H           4.1244    9.3666    9.0802 H       1  UNL1        0.0000
     51 H           4.1007    7.6227    8.9769 H       1  UNL1        0.0000
@<TRIPOS>BOND
     1    49    21    1
     2    48    20    1
     3    21    51    1
     4    21    50    1
     5    21     1    1
     6    43    19    1
     7    47    20    1
     8    20    46    1
     9    20     1    1
    10    44    19    1
    11    36    16    1
    12    35    16    1
    13    19    11    1
    14    19    45    1
    15     1     7    1
    16     1     2    1
    17     7    11    1
    18     7     8    1
    19    16     8    1
    20    16    34    1
    21    40    18    1
    22    11    10    1
    23    39    17    1
    24     8     9    2
    25    10     9    1
    26    10    18    1
    27     9    17    1
    28    32    15    1
    29    18    41    1
    30    18    42    1
    31    17    38    1
    32    17    37    1
    33    24    12    1
    34     2     6    1
    35     2     3    1
    36    15    31    1
    37    15     6    1
    38    15    33    1
    39    23    12    1
    40     6     5    2
    41    12     3    1
    42    12    22    1
    43     3     4    1
    44     5     4    1
    45     5    14    1
    46     4    13    1
    47    29    14    1
    48    14    30    1
    49    14    28    1
    50    26    13    1
    51    13    25    1
    52    13    27    1
