@<TRIPOS>MOLECULE
1,2,3,4,5,27,28,29,34,35
 51 52 0 0 0
SMALL
GASTEIGER

@<TRIPOS>ATOM
      1 C          -0.1566   -1.5610    0.9250 C.3     1  UNL1        0.0000
      2 C           1.1386   -2.0468    0.6504 C.3     1  UNL1        0.0000
      3 C           2.0732   -1.3476    1.4514 C.2     1  UNL1        0.0000
      4 C           1.3825   -0.3823    2.2077 C.2     1  UNL1        0.0000
      5 C          -0.0109   -0.4849    1.8886 C.3     1  UNL1        0.0000
      6 C           1.5162   -3.2155   -0.2063 C.3     1  UNL1        0.0000
      7 C           3.5341   -1.6668    1.4948 C.3     1  UNL1        0.0000
      8 C           1.9547    0.4684    3.3046 C.3     1  UNL1        0.0000
      9 C          -1.1041   -0.0866    2.8485 C.3     1  UNL1        0.0000
     10 C          -3.3426   -1.9840    1.1127 C.3     1  UNL1        0.0000
     11 SI         -1.7946   -1.7946   -0.0000 Si      1  UNL1        0.0000
     12 H           2.0250   -3.9637    0.4042 H       1  UNL1        0.0000
     13 H           2.2103   -2.9213   -0.9964 H       1  UNL1        0.0000
     14 H           0.6398   -3.6799   -0.6479 H       1  UNL1        0.0000
     15 H           4.0999   -0.8812    1.9882 H       1  UNL1        0.0000
     16 H           3.9324   -1.7918    0.4887 H       1  UNL1        0.0000
     17 H           3.6955   -2.5997    2.0393 H       1  UNL1        0.0000
     18 H           1.6906    0.0516    4.2798 H       1  UNL1        0.0000
     19 H           1.5756    1.4909    3.2553 H       1  UNL1        0.0000
     20 H           3.0400    0.5043    3.2413 H       1  UNL1        0.0000
     21 H          -1.9376    0.4160    2.3590 H       1  UNL1        0.0000
     22 H          -0.7112    0.5594    3.6321 H       1  UNL1        0.0000
     23 H          -1.4927   -0.9849    3.3344 H       1  UNL1        0.0000
     24 H          -3.3144   -2.9530    1.6010 H       1  UNL1        0.0000
     25 H          -4.2393   -1.9588    0.5013 H       1  UNL1        0.0000
     26 H          -3.4480   -1.2356    1.8869 H       1  UNL1        0.0000
     27 C          -1.5610   -0.1566   -0.9251 C.3     1  UNL1        0.0000
     28 C          -2.0469    1.1386   -0.6503 C.2     1  UNL1        0.0000
     29 C          -1.3477    2.0732   -1.4513 C.2     1  UNL1        0.0000
     30 C          -3.2156    1.5162    0.2064 C.3     1  UNL1        0.0000
     31 H          -3.9638    2.0249   -0.4041 H       1  UNL1        0.0000
     32 H          -2.9214    2.2102    0.9965 H       1  UNL1        0.0000
     33 H          -3.6799    0.6397    0.6480 H       1  UNL1        0.0000
     34 C          -0.3823    1.3825   -2.2077 C.3     1  UNL1        0.0000
     35 C          -0.4850   -0.0108   -1.8887 C.3     1  UNL1        0.0000
     36 C           0.4683    1.9548   -3.3046 C.3     1  UNL1        0.0000
     37 H           0.0515    1.6908   -4.2798 H       1  UNL1        0.0000
     38 H           1.4908    1.5757   -3.2553 H       1  UNL1        0.0000
     39 H           0.5042    3.0401   -3.2412 H       1  UNL1        0.0000
     40 C          -0.0867   -1.1040   -2.8487 C.3     1  UNL1        0.0000
     41 H           0.4159   -1.9375   -2.3591 H       1  UNL1        0.0000
     42 H           0.5593   -0.7111   -3.6322 H       1  UNL1        0.0000
     43 H          -0.9850   -1.4926   -3.3345 H       1  UNL1        0.0000
     44 C          -1.9838   -3.3426   -1.1128 C.3     1  UNL1        0.0000
     45 H          -2.9529   -3.3145   -1.6012 H       1  UNL1        0.0000
     46 H          -1.9586   -4.2393   -0.5014 H       1  UNL1        0.0000
     47 H          -1.2354   -3.4480   -1.8870 H       1  UNL1        0.0000
     48 C          -1.6668    3.5341   -1.4946 C.3     1  UNL1        0.0000
     49 H          -0.8813    4.1000   -1.9880 H       1  UNL1        0.0000
     50 H          -1.7918    3.9323   -0.4885 H       1  UNL1        0.0000
     51 H          -2.5998    3.6955   -2.0391 H       1  UNL1        0.0000
@<TRIPOS>BOND
     1    37    36    1
     2    42    40    1
     3    43    40    1
     4    36    38    1
     5    36    39    1
     6    36    34    1
     7    40    41    1
     8    40    35    1
     9    34    35    1
    10    34    29    1
    11    51    48    1
    12    49    48    1
    13    35    27    1
    14    47    44    1
    15    45    44    1
    16    48    29    1
    17    48    50    1
    18    29    28    2
    19    44    46    1
    20    44    11    1
    21    13     6    1
    22    27    28    1
    23    27    11    1
    24    28    30    1
    25    14     6    1
    26    31    30    1
    27     6    12    1
    28     6     2    1
    29    11     1    1
    30    11    10    1
    31    30    33    1
    32    30    32    1
    33    16     7    1
    34    25    10    1
    35     2     1    1
    36     2     3    1
    37     1     5    1
    38    10    24    1
    39    10    26    1
    40     3     7    1
    41     3     4    2
    42     7    15    1
    43     7    17    1
    44     5     4    1
    45     5     9    1
    46     4     8    1
    47    21     9    1
    48     9    23    1
    49     9    22    1
    50    20     8    1
    51    19     8    1
    52     8    18    1
