@<TRIPOS>MOLECULE
2,3,5,7,9,11,12,14,16,18
 27 28 0 0 0
SMALL
GASTEIGER

@<TRIPOS>ATOM
      1 SI          2.6573    6.0890   -0.3923 Si      1  UNL1        0.0000
      2 C           1.3463    6.0778    0.9699 C.2     1  UNL1        0.0000
      3 C           1.2356    7.0658    1.9876 C.3     1  UNL1        0.0000
      4 H           1.5443    8.1030    1.8925 H       1  UNL1        0.0000
      5 C           0.4719    6.5304    3.0467 C.2     1  UNL1        0.0000
      6 H           0.0970    7.0770    3.9034 H       1  UNL1        0.0000
      7 C           0.1512    5.1995    2.7257 C.2     1  UNL1        0.0000
      8 H          -0.5101    4.5582    3.2954 H       1  UNL1        0.0000
      9 C           0.7142    4.9038    1.4660 C.2     1  UNL1        0.0000
     10 H           0.5523    3.9911    0.8995 H       1  UNL1        0.0000
     11 C           4.0368    5.4884    0.7528 C.2     1  UNL1        0.0000
     12 C           4.7029    6.3045    1.7089 C.3     1  UNL1        0.0000
     13 H           4.8458    7.3784    1.6283 H       1  UNL1        0.0000
     14 C           5.3242    5.4636    2.6567 C.2     1  UNL1        0.0000
     15 H           6.0184    5.7740    3.4280 H       1  UNL1        0.0000
     16 C           5.0072    4.1321    2.3346 C.2     1  UNL1        0.0000
     17 H           5.4180    3.2541    2.8179 H       1  UNL1        0.0000
     18 C           4.1882    4.1415    1.1855 C.2     1  UNL1        0.0000
     19 H           3.8662    3.2642    0.6317 H       1  UNL1        0.0000
     20 C           2.2733    4.8496   -1.7916 C.3     1  UNL1        0.0000
     21 H           3.0862    4.8164   -2.5086 H       1  UNL1        0.0000
     22 H           1.3739    5.1378   -2.3246 H       1  UNL1        0.0000
     23 H           2.1256    3.8439   -1.4114 H       1  UNL1        0.0000
     24 C           2.9763    7.8328   -1.0975 C.3     1  UNL1        0.0000
     25 H           3.7906    7.8144   -1.8135 H       1  UNL1        0.0000
     26 H           3.2348    8.5435   -0.3195 H       1  UNL1        0.0000
     27 H           2.0955    8.2063   -1.6085 H       1  UNL1        0.0000
@<TRIPOS>BOND
     1    21    20    1
     2    22    20    1
     3    25    24    1
     4    20    23    1
     5    20     1    1
     6    27    24    1
     7    24     1    1
     8    24    26    1
     9     1    11    1
    10     1     2    1
    11    19    18    1
    12    11    18    2
    13    11    12    1
    14    10     9    1
    15     2     9    2
    16     2     3    1
    17    18    16    1
    18     9     7    1
    19    13    12    1
    20    12    14    1
    21     4     3    1
    22     3     5    1
    23    16    14    2
    24    16    17    1
    25    14    15    1
    26     7     5    2
    27     7     8    1
    28     5     6    1
