@<TRIPOS>MOLECULE
3,4,5,6,11,45,46,47,72,74
 88 91 0 0 0
SMALL
GASTEIGER

@<TRIPOS>ATOM
      1 SI          3.3810    3.2556    2.0054 Si      1  UNL1        0.0000
      2 O           1.9197    3.5028    1.2986 O.2     1  UNL1        0.0000
      3 C          -0.5090    0.8303    1.3844 C.3     1  UNL1        0.0000
      4 C           0.6764    1.4333    1.8999 C.3     1  UNL1        0.0000
      5 C           0.8819    2.6429    1.1892 C.2     1  UNL1        0.0000
      6 C          -0.1943    2.8319    0.2950 C.2     1  UNL1        0.0000
      7 C          -0.3292    3.8817   -0.7723 C.3     1  UNL1        0.0000
      8 C          -1.2101    3.3284   -1.8958 C.3     1  UNL1        0.0000
      9 C          -2.5044    2.7578   -1.3160 C.3     1  UNL1        0.0000
     10 C          -2.2276    1.4871   -0.5049 C.3     1  UNL1        0.0000
     11 C          -1.0721    1.7163    0.4336 C.3     1  UNL1        0.0000
     12 C          -1.0531   -0.4985    1.8302 C.3     1  UNL1        0.0000
     13 C           4.2987    1.8608    1.0717 C.3     1  UNL1        0.0000
     14 C           3.2280    2.7513    3.8439 C.3     1  UNL1        0.0000
     15 C           4.2165    4.9657    1.7859 C.3     1  UNL1        0.0000
     16 C           5.6989    4.8568    2.1397 C.3     1  UNL1        0.0000
     17 C           4.0900    5.4505    0.3398 C.3     1  UNL1        0.0000
     18 C           3.5619    5.9992    2.7050 C.3     1  UNL1        0.0000
     19 H           1.4000    0.9680    2.5547 H       1  UNL1        0.0000
     20 H          -0.7834    4.7946   -0.3680 H       1  UNL1        0.0000
     21 H           0.6635    4.1439   -1.1497 H       1  UNL1        0.0000
     22 H          -1.4407    4.1229   -2.6066 H       1  UNL1        0.0000
     23 H          -0.6713    2.5406   -2.4281 H       1  UNL1        0.0000
     24 H          -2.9560    3.5138   -0.6700 H       1  UNL1        0.0000
     25 H          -3.2069    2.5278   -2.1193 H       1  UNL1        0.0000
     26 H          -1.9715    0.6699   -1.1911 H       1  UNL1        0.0000
     27 H          -3.1319    1.1878    0.0371 H       1  UNL1        0.0000
     28 H          -0.3771   -1.3086    1.5391 H       1  UNL1        0.0000
     29 H          -2.0149   -0.6798    1.3447 H       1  UNL1        0.0000
     30 H           3.7100    0.9480    1.0434 H       1  UNL1        0.0000
     31 H           4.4993    2.1430    0.0426 H       1  UNL1        0.0000
     32 H           5.2489    1.6251    1.5382 H       1  UNL1        0.0000
     33 H           3.2649    1.6736    3.9831 H       1  UNL1        0.0000
     34 H           4.0274    3.1718    4.4449 H       1  UNL1        0.0000
     35 H           2.2877    3.1184    4.2476 H       1  UNL1        0.0000
     36 H           5.8295    4.5120    3.1625 H       1  UNL1        0.0000
     37 H           6.2034    4.1560    1.4792 H       1  UNL1        0.0000
     38 H           6.1859    5.8266    2.0440 H       1  UNL1        0.0000
     39 H           4.5654    6.4243    0.2240 H       1  UNL1        0.0000
     40 H           4.5676    4.7556   -0.3476 H       1  UNL1        0.0000
     41 H           3.0430    5.5445    0.0649 H       1  UNL1        0.0000
     42 H           3.6992    5.7312    3.7495 H       1  UNL1        0.0000
     43 H           4.0014    6.9834    2.5442 H       1  UNL1        0.0000
     44 H           2.4949    6.0623    2.5107 H       1  UNL1        0.0000
     45 C          -1.7753    0.8303    3.8095 C.3     1  UNL1        0.0000
     46 C          -2.9608    1.4331    3.2941 C.3     1  UNL1        0.0000
     47 C          -3.1664    2.6427    4.0048 C.2     1  UNL1        0.0000
     48 O          -4.2042    3.5026    3.8954 O.2     1  UNL1        0.0000
     49 SI         -5.6654    3.2554    3.1885 Si      1  UNL1        0.0000
     50 C          -6.5833    1.8608    4.1222 C.3     1  UNL1        0.0000
     51 H          -5.9948    0.9479    4.1505 H       1  UNL1        0.0000
     52 H          -6.7839    2.1430    5.1513 H       1  UNL1        0.0000
     53 H          -7.5335    1.6252    3.6557 H       1  UNL1        0.0000
     54 C          -5.5121    2.7508    1.3501 C.3     1  UNL1        0.0000
     55 H          -5.5519    1.6732    1.2108 H       1  UNL1        0.0000
     56 H          -6.3095    3.1738    0.7482 H       1  UNL1        0.0000
     57 H          -4.5702    3.1153    0.9475 H       1  UNL1        0.0000
     58 C          -6.5007    4.9656    3.4080 C.3     1  UNL1        0.0000
     59 C          -7.9832    4.8569    3.0542 C.3     1  UNL1        0.0000
     60 H          -8.1138    4.5120    2.0314 H       1  UNL1        0.0000
     61 H          -8.4877    4.1561    3.7147 H       1  UNL1        0.0000
     62 H          -8.4700    5.8268    3.1498 H       1  UNL1        0.0000
     63 C          -6.3742    5.4503    4.8541 C.3     1  UNL1        0.0000
     64 H          -6.8495    6.4242    4.9700 H       1  UNL1        0.0000
     65 H          -6.8518    4.7554    5.5415 H       1  UNL1        0.0000
     66 H          -5.3272    5.5442    5.1291 H       1  UNL1        0.0000
     67 C          -5.8461    5.9991    2.4890 C.3     1  UNL1        0.0000
     68 H          -5.9833    5.7312    1.4445 H       1  UNL1        0.0000
     69 H          -6.2855    6.9834    2.6499 H       1  UNL1        0.0000
     70 H          -4.7791    6.0621    2.6833 H       1  UNL1        0.0000
     71 H          -3.6844    0.9678    2.6393 H       1  UNL1        0.0000
     72 C          -2.0901    2.8318    4.8989 C.2     1  UNL1        0.0000
     73 C          -1.2311   -0.4985    3.3636 C.3     1  UNL1        0.0000
     74 C          -1.2122    1.7163    4.7602 C.3     1  UNL1        0.0000
     75 C          -1.9552    3.8817    5.9662 C.3     1  UNL1        0.0000
     76 C          -1.0744    3.3284    7.0897 C.3     1  UNL1        0.0000
     77 C           0.2199    2.7581    6.5098 C.3     1  UNL1        0.0000
     78 C          -0.0565    1.4874    5.6985 C.3     1  UNL1        0.0000
     79 H          -0.3123    0.6699    6.3846 H       1  UNL1        0.0000
     80 H           0.8478    1.1884    5.1563 H       1  UNL1        0.0000
     81 H           0.6715    3.5142    5.8639 H       1  UNL1        0.0000
     82 H           0.9224    2.5280    7.3131 H       1  UNL1        0.0000
     83 H          -0.8440    4.1228    7.8006 H       1  UNL1        0.0000
     84 H          -1.6131    2.5404    7.6219 H       1  UNL1        0.0000
     85 H          -1.5011    4.7946    5.5619 H       1  UNL1        0.0000
     86 H          -2.9479    4.1438    6.3435 H       1  UNL1        0.0000
     87 H          -1.9070   -1.3086    3.6548 H       1  UNL1        0.0000
     88 H          -0.2692   -0.6797    3.8491 H       1  UNL1        0.0000
@<TRIPOS>BOND
     1    22     8    1
     2    23     8    1
     3    25     9    1
     4     8     9    1
     5     8     7    1
     6     9    24    1
     7     9    10    1
     8    26    10    1
     9    21     7    1
    10     7    20    1
    11     7     6    1
    12    10    27    1
    13    10    11    1
    14    40    17    1
    15    31    13    1
    16    41    17    1
    17    39    17    1
    18     6    11    1
    19     6     5    2
    20    17    15    1
    21    11     3    1
    22    56    54    1
    23    57    54    1
    24    30    13    1
    25    13    32    1
    26    13     1    1
    27     5     2    1
    28     5     4    1
    29    55    54    1
    30     2     1    1
    31    29    12    1
    32    54    49    1
    33     3    12    1
    34     3     4    1
    35    68    67    1
    36    37    16    1
    37    28    12    1
    38    15     1    1
    39    15    16    1
    40    15    18    1
    41    12    73    1
    42     4    19    1
    43     1    14    1
    44    60    59    1
    45    38    16    1
    46    16    36    1
    47    67    69    1
    48    67    70    1
    49    67    58    1
    50    44    18    1
    51    43    18    1
    52    71    46    1
    53    18    42    1
    54    59    62    1
    55    59    58    1
    56    59    61    1
    57    49    58    1
    58    49    48    1
    59    49    50    1
    60    46    45    1
    61    46    47    1
    62    73    87    1
    63    73    45    1
    64    73    88    1
    65    58    63    1
    66    53    50    1
    67    45    74    1
    68    14    33    1
    69    14    35    1
    70    14    34    1
    71    48    47    1
    72    47    72    2
    73    50    51    1
    74    50    52    1
    75    74    72    1
    76    74    78    1
    77    63    64    1
    78    63    66    1
    79    63    65    1
    80    72    75    1
    81    80    78    1
    82    85    75    1
    83    78    79    1
    84    78    77    1
    85    81    77    1
    86    75    86    1
    87    75    76    1
    88    77    76    1
    89    77    82    1
    90    76    84    1
    91    76    83    1
