@<TRIPOS>MOLECULE
2,3,5,7,8,17,18,20,22,23
 39 42 0 0 0
SMALL
GASTEIGER

@<TRIPOS>ATOM
      1 SI         10.5424    3.0297    0.5921 Si      1  UNL1        0.0000
      2 C          10.6758    1.7291   -0.7763 C.3     1  UNL1        0.0000
      3 C           9.5253    1.1166   -1.3548 C.2     1  UNL1        0.0000
      4 H           8.5419    1.5733   -1.4036 H       1  UNL1        0.0000
      5 C           9.8737   -0.0864   -1.9872 C.2     1  UNL1        0.0000
      6 H           9.2216   -0.7023   -2.5935 H       1  UNL1        0.0000
      7 C          11.2732   -0.2832   -1.8065 C.3     1  UNL1        0.0000
      8 C          11.7733    0.8357   -1.0279 C.3     1  UNL1        0.0000
      9 C          12.1579   -1.2842   -2.2511 C.2     1  UNL1        0.0000
     10 H          11.7890   -2.1031   -2.8547 H       1  UNL1        0.0000
     11 C          13.4840   -1.1943   -1.9119 C.2     1  UNL1        0.0000
     12 H          14.1760   -1.9537   -2.2424 H       1  UNL1        0.0000
     13 C          13.9692   -0.1277   -1.1343 C.2     1  UNL1        0.0000
     14 H          15.0202   -0.1020   -0.8879 H       1  UNL1        0.0000
     15 C          13.1432    0.8762   -0.6929 C.2     1  UNL1        0.0000
     16 H          13.5462    1.7143   -0.1399 H       1  UNL1        0.0000
     17 C          10.1489    1.7264    1.9071 C.3     1  UNL1        0.0000
     18 C           8.8651    1.1133    2.0043 C.2     1  UNL1        0.0000
     19 H           7.9366    1.5704    1.6772 H       1  UNL1        0.0000
     20 C           8.9479   -0.0914    2.7189 C.2     1  UNL1        0.0000
     21 H           8.1148   -0.7082    3.0311 H       1  UNL1        0.0000
     22 C          10.3114   -0.2882    3.0827 C.3     1  UNL1        0.0000
     23 C          11.0691    0.8321    2.5546 C.3     1  UNL1        0.0000
     24 C          10.9613   -1.2903    3.8282 C.2     1  UNL1        0.0000
     25 H          10.3913   -2.1104    4.2446 H       1  UNL1        0.0000
     26 C          12.3167   -1.1999    4.0189 C.2     1  UNL1        0.0000
     27 H          12.8317   -1.9599    4.5862 H       1  UNL1        0.0000
     28 C          13.0603   -0.1315    3.4864 C.2     1  UNL1        0.0000
     29 H          14.1260   -0.1050    3.6586 H       1  UNL1        0.0000
     30 C          12.4635    0.8732    2.7660 C.2     1  UNL1        0.0000
     31 H          13.0459    1.7125    2.4096 H       1  UNL1        0.0000
     32 C           9.0422    4.1714    0.3000 C.3     1  UNL1        0.0000
     33 H           8.1271    3.6201    0.1123 H       1  UNL1        0.0000
     34 H           9.2159    4.8190   -0.5524 H       1  UNL1        0.0000
     35 H           8.8719    4.8058    1.1631 H       1  UNL1        0.0000
     36 C          12.0715    4.1246    0.8908 C.3     1  UNL1        0.0000
     37 H          12.9787    3.5640    1.0809 H       1  UNL1        0.0000
     38 H          11.9027    4.7740    1.7433 H       1  UNL1        0.0000
     39 H          12.2509    4.7558    0.0268 H       1  UNL1        0.0000
@<TRIPOS>BOND
     1    10     9    1
     2     6     5    1
     3     9    11    2
     4     9     7    1
     5    12    11    1
     6     5     7    1
     7     5     3    2
     8    11    13    1
     9     7     8    1
    10     4     3    1
    11     3     2    1
    12    13    14    1
    13    13    15    2
    14     8     2    1
    15     8    15    1
    16     2     1    1
    17    15    16    1
    18    34    32    1
    19    39    36    1
    20    33    32    1
    21    32     1    1
    22    32    35    1
    23     1    36    1
    24     1    17    1
    25    36    37    1
    26    36    38    1
    27    19    18    1
    28    17    18    1
    29    17    23    1
    30    18    20    2
    31    31    30    1
    32    23    30    1
    33    23    22    1
    34    20    21    1
    35    20    22    1
    36    30    28    2
    37    22    24    1
    38    28    29    1
    39    28    26    1
    40    24    26    2
    41    24    25    1
    42    26    27    1
