@<TRIPOS>MOLECULE
4,5,6,7,8,13,14,15,16,17
 51 52 0 0 0
SMALL
GASTEIGER

@<TRIPOS>ATOM
      1 SI         -0.3798    5.5730    4.9343 Si      1  UNL1        0.0000
      2 C          -1.0776    5.4929    6.7177 C.3     1  UNL1        0.0000
      3 C          -1.2293    7.1932    4.3568 C.3     1  UNL1        0.0000
      4 C           1.5259    5.5383    4.8610 C.3     1  UNL1        0.0000
      5 C           2.3444    4.6211    5.6065 C.3     1  UNL1        0.0000
      6 C           3.6156    4.5229    4.9770 C.3     1  UNL1        0.0000
      7 C           3.5924    5.3640    3.8193 C.2     1  UNL1        0.0000
      8 C           2.3164    5.9784    3.7521 C.2     1  UNL1        0.0000
      9 C           2.0307    4.0510    6.9667 C.3     1  UNL1        0.0000
     10 C           4.8382    3.8491    5.5446 C.3     1  UNL1        0.0000
     11 C           4.7711    5.7159    2.9522 C.3     1  UNL1        0.0000
     12 C           1.9884    7.0904    2.7919 C.3     1  UNL1        0.0000
     13 C          -0.6966    4.0441    3.8319 C.3     1  UNL1        0.0000
     14 C          -0.4985    4.0095    2.4068 C.3     1  UNL1        0.0000
     15 C          -0.3609    2.6553    1.9916 C.3     1  UNL1        0.0000
     16 C          -0.4434    1.8337    3.1568 C.2     1  UNL1        0.0000
     17 C          -0.6409    2.6828    4.2754 C.2     1  UNL1        0.0000
     18 C          -0.6821    5.1368    1.4247 C.3     1  UNL1        0.0000
     19 C          -0.3832    2.1846    0.5615 C.3     1  UNL1        0.0000
     20 C          -0.5255    0.3324    3.1921 C.3     1  UNL1        0.0000
     21 C          -0.9783    2.1492    5.6415 C.3     1  UNL1        0.0000
     22 H          -2.1450    5.2989    6.6913 H       1  UNL1        0.0000
     23 H          -0.9371    6.4561    7.1975 H       1  UNL1        0.0000
     24 H          -0.6178    4.7480    7.3520 H       1  UNL1        0.0000
     25 H          -2.2840    7.1492    4.6077 H       1  UNL1        0.0000
     26 H          -1.1642    7.4021    3.2973 H       1  UNL1        0.0000
     27 H          -0.8048    8.0396    4.8871 H       1  UNL1        0.0000
     28 H           1.1909    3.3555    6.9478 H       1  UNL1        0.0000
     29 H           1.7824    4.8579    7.6565 H       1  UNL1        0.0000
     30 H           2.8970    3.5265    7.3651 H       1  UNL1        0.0000
     31 H           4.6064    2.8615    5.9459 H       1  UNL1        0.0000
     32 H           5.2641    4.4540    6.3489 H       1  UNL1        0.0000
     33 H           5.6003    3.7298    4.7771 H       1  UNL1        0.0000
     34 H           5.4774    4.8892    2.8943 H       1  UNL1        0.0000
     35 H           5.2981    6.5823    3.3606 H       1  UNL1        0.0000
     36 H           4.4528    5.9614    1.9394 H       1  UNL1        0.0000
     37 H           2.7778    7.8431    2.8201 H       1  UNL1        0.0000
     38 H           1.0582    7.5725    3.0721 H       1  UNL1        0.0000
     39 H           1.9087    6.7392    1.7599 H       1  UNL1        0.0000
     40 H          -0.5621    6.1037    1.8994 H       1  UNL1        0.0000
     41 H          -1.6871    5.0946    0.9972 H       1  UNL1        0.0000
     42 H           0.0271    5.0618    0.5970 H       1  UNL1        0.0000
     43 H          -0.1023    1.1360    0.4923 H       1  UNL1        0.0000
     44 H           0.3004    2.7610   -0.0640 H       1  UNL1        0.0000
     45 H          -1.3887    2.2925    0.1478 H       1  UNL1        0.0000
     46 H          -0.0855   -0.1051    2.2982 H       1  UNL1        0.0000
     47 H          -1.5688    0.0114    3.2466 H       1  UNL1        0.0000
     48 H          -0.0043   -0.0710    4.0607 H       1  UNL1        0.0000
     49 H          -1.2310    2.9544    6.3216 H       1  UNL1        0.0000
     50 H          -0.1583    1.5637    6.0674 H       1  UNL1        0.0000
     51 H          -1.8426    1.4860    5.5709 H       1  UNL1        0.0000
@<TRIPOS>BOND
     1    44    19    1
     2    45    19    1
     3    43    19    1
     4    19    15    1
     5    42    18    1
     6    41    18    1
     7    18    40    1
     8    18    14    1
     9    39    12    1
    10    36    11    1
    11    15    14    1
    12    15    16    1
    13    46    20    1
    14    14    13    1
    15    12    37    1
    16    12    38    1
    17    12     8    1
    18    34    11    1
    19    11    35    1
    20    11     7    1
    21    16    20    1
    22    16    17    2
    23    20    47    1
    24    20    48    1
    25    26     3    1
    26     8     7    2
    27     8     4    1
    28     7     6    1
    29    13    17    1
    30    13     1    1
    31    17    21    1
    32     3    25    1
    33     3    27    1
    34     3     1    1
    35    33    10    1
    36     4     1    1
    37     4     5    1
    38     1     2    1
    39     6    10    1
    40     6     5    1
    41    10    31    1
    42    10    32    1
    43    51    21    1
    44     5     9    1
    45    21    50    1
    46    21    49    1
    47    22     2    1
    48     2    23    1
    49     2    24    1
    50    28     9    1
    51     9    30    1
    52     9    29    1
