@<TRIPOS>MOLECULE
1,3,5,7,9,10,11,13,15,17
 27 28 0 0 0
SMALL
GASTEIGER

@<TRIPOS>ATOM
      1 C           1.1273   12.8879    9.1126 C.3     1  UNL1        0.0000
      2 H           2.0891   12.7186    9.5824 H       1  UNL1        0.0000
      3 C          -0.0595   13.2271    9.7928 C.2     1  UNL1        0.0000
      4 H          -0.1512   13.4241   10.8527 H       1  UNL1        0.0000
      5 C          -1.1140   13.2054    8.8636 C.2     1  UNL1        0.0000
      6 H          -2.1586   13.3820    9.0835 H       1  UNL1        0.0000
      7 C          -0.5818   12.8390    7.6091 C.3     1  UNL1        0.0000
      8 H          -1.1648   12.6436    6.7170 H       1  UNL1        0.0000
      9 C           0.8041   12.5856    7.7627 C.3     1  UNL1        0.0000
     10 C           2.0764   14.4549    6.4109 C.3     1  UNL1        0.0000
     11 C           2.7099   15.2159    7.4294 C.3     1  UNL1        0.0000
     12 H           3.5724   14.9017    8.0054 H       1  UNL1        0.0000
     13 C           2.1796   16.5216    7.4092 C.2     1  UNL1        0.0000
     14 H           2.5198   17.3560    8.0081 H       1  UNL1        0.0000
     15 C           1.1712   16.5657    6.4308 C.2     1  UNL1        0.0000
     16 H           0.6007   17.4394    6.1449 H       1  UNL1        0.0000
     17 C           1.0860   15.2894    5.8351 C.3     1  UNL1        0.0000
     18 H           0.4672   15.0389    4.9817 H       1  UNL1        0.0000
     19 C           3.7285   11.7678    6.8202 C.3     1  UNL1        0.0000
     20 H           3.6204   10.6945    6.9358 H       1  UNL1        0.0000
     21 H           4.1231   12.1627    7.7505 H       1  UNL1        0.0000
     22 H           4.4682   11.9422    6.0461 H       1  UNL1        0.0000
     23 C           1.3739   11.8588    4.7224 C.3     1  UNL1        0.0000
     24 H           2.0637   12.0386    3.9047 H       1  UNL1        0.0000
     25 H           0.4207   12.3044    4.4567 H       1  UNL1        0.0000
     26 H           1.2286   10.7865    4.7998 H       1  UNL1        0.0000
     27 SI          2.0631   12.5645    6.3515 Si      1  UNL1        0.0000
@<TRIPOS>BOND
     1    24    23    1
     2    25    23    1
     3    23    26    1
     4    23    27    1
     5    18    17    1
     6    17    10    1
     7    17    15    1
     8    22    19    1
     9    16    15    1
    10    27    10    1
    11    27    19    1
    12    27     9    1
    13    10    11    1
    14    15    13    2
    15     8     7    1
    16    19    20    1
    17    19    21    1
    18    13    11    1
    19    13    14    1
    20    11    12    1
    21     7     9    1
    22     7     5    1
    23     9     1    1
    24     5     6    1
    25     5     3    2
    26     1     2    1
    27     1     3    1
    28     3     4    1
