@<TRIPOS>MOLECULE
2,3,5,6,7,20,21,23,24,25
 45 48 0 0 0
SMALL
GASTEIGER

@<TRIPOS>ATOM
      1 SI         11.0496    5.4168    9.2109 Si      1  UNL1        0.0000
      2 C          11.5519    4.1001   10.4801 C.3     1  UNL1        0.0000
      3 C          12.6571    4.2616   11.3712 C.3     1  UNL1        0.0000
      4 H          12.9965    5.2129   11.7695 H       1  UNL1        0.0000
      5 C          13.1979    3.0123   11.7314 C.3     1  UNL1        0.0000
      6 C          12.4102    2.0073   11.0843 C.ar    1  UNL1        0.0000
      7 C          11.3868    2.6803   10.3117 C.ar    1  UNL1        0.0000
      8 C          12.4597    0.5999   11.1199 C.ar    1  UNL1        0.0000
      9 H          13.2174    0.0978   11.7062 H       1  UNL1        0.0000
     10 C          11.5178   -0.1146   10.4234 C.ar    1  UNL1        0.0000
     11 H          11.5420   -1.1936   10.4378 H       1  UNL1        0.0000
     12 C          10.4866    0.5331    9.7221 C.ar    1  UNL1        0.0000
     13 H           9.7325   -0.0661    9.2340 H       1  UNL1        0.0000
     14 C          10.4032    1.9030    9.6718 C.ar    1  UNL1        0.0000
     15 H           9.5559    2.3814    9.2029 H       1  UNL1        0.0000
     16 C          14.3628    2.7530   12.6410 C.3     1  UNL1        0.0000
     17 H          14.8348    3.6911   12.9310 H       1  UNL1        0.0000
     18 H          15.1075    2.1315   12.1327 H       1  UNL1        0.0000
     19 H          14.0418    2.2284   13.5433 H       1  UNL1        0.0000
     20 C          12.2248    4.8154    7.8495 C.3     1  UNL1        0.0000
     21 C          13.5847    5.2425    7.7515 C.3     1  UNL1        0.0000
     22 H          13.9502    6.2180    8.0577 H       1  UNL1        0.0000
     23 C          14.3755    4.2587    7.1268 C.3     1  UNL1        0.0000
     24 C          13.5074    3.1741    6.7809 C.ar    1  UNL1        0.0000
     25 C          12.1730    3.5205    7.2239 C.ar    1  UNL1        0.0000
     26 C          13.7352    1.9599    6.1038 C.ar    1  UNL1        0.0000
     27 H          14.7301    1.7061    5.7636 H       1  UNL1        0.0000
     28 C          12.6726    1.1261    5.8618 C.ar    1  UNL1        0.0000
     29 H          12.8292    0.1912    5.3457 H       1  UNL1        0.0000
     30 C          11.3663    1.4866    6.2339 C.ar    1  UNL1        0.0000
     31 H          10.5504    0.8290    5.9739 H       1  UNL1        0.0000
     32 C          11.1067    2.6648    6.8899 C.ar    1  UNL1        0.0000
     33 H          10.0888    2.9660    7.0899 H       1  UNL1        0.0000
     34 C          15.8473    4.3208    6.8404 C.3     1  UNL1        0.0000
     35 H          16.0336    4.3259    5.7645 H       1  UNL1        0.0000
     36 H          16.3524    3.4488    7.2691 H       1  UNL1        0.0000
     37 H          16.2815    5.2204    7.2749 H       1  UNL1        0.0000
     38 C          11.6436    7.1228    9.8238 C.3     1  UNL1        0.0000
     39 H          12.6953    7.1076   10.0985 H       1  UNL1        0.0000
     40 H          11.0775    7.4412   10.6921 H       1  UNL1        0.0000
     41 H          11.5113    7.8772    9.0562 H       1  UNL1        0.0000
     42 C           9.2016    5.4774    8.7552 C.3     1  UNL1        0.0000
     43 H           8.6127    5.7796    9.6144 H       1  UNL1        0.0000
     44 H           8.8165    4.5244    8.4128 H       1  UNL1        0.0000
     45 H           9.0324    6.2025    7.9665 H       1  UNL1        0.0000
@<TRIPOS>BOND
     1    29    28    1
     2    27    26    1
     3    35    34    1
     4    28    26   ar
     5    28    30   ar
     6    31    30    1
     7    26    24   ar
     8    30    32   ar
     9    24    23    1
    10    24    25   ar
    11    34    23    1
    12    34    36    1
    13    34    37    1
    14    32    33    1
    15    32    25   ar
    16    23    21    1
    17    25    20    1
    18    21    20    1
    19    21    22    1
    20    20     1    1
    21    45    42    1
    22    44    42    1
    23    42     1    1
    24    42    43    1
    25    41    38    1
    26    15    14    1
    27     1    38    1
    28     1     2    1
    29    13    12    1
    30    14    12   ar
    31    14     7   ar
    32    12    10   ar
    33    38    39    1
    34    38    40    1
    35     7     2    1
    36     7     6   ar
    37    10    11    1
    38    10     8   ar
    39     2     3    1
    40     6     8   ar
    41     6     5    1
    42     8     9    1
    43     3     5    1
    44     3     4    1
    45     5    16    1
    46    18    16    1
    47    16    17    1
    48    16    19    1
