@<TRIPOS>MOLECULE
10,11,13,16,18,28,29,31,34,36
 45 46 0 0 0
SMALL
GASTEIGER

@<TRIPOS>ATOM
      1 SI         11.4808    2.9400    1.9556 Si      1  UNL1        0.0000
      2 C          11.8673    1.4688    0.8244 C.3     1  UNL1        0.0000
      3 H          12.5746    1.7544    0.0555 H       1  UNL1        0.0000
      4 H          10.9820    1.0865    0.3329 H       1  UNL1        0.0000
      5 H          12.3061    0.6573    1.3917 H       1  UNL1        0.0000
      6 C          13.0368    3.5461    2.8530 C.3     1  UNL1        0.0000
      7 H          13.4405    2.7656    3.4861 H       1  UNL1        0.0000
      8 H          12.8395    4.4080    3.4773 H       1  UNL1        0.0000
      9 H          13.8038    3.8235    2.1407 H       1  UNL1        0.0000
     10 C          10.0916    2.5426    3.1681 C.3     1  UNL1        0.0000
     11 C           8.9398    2.0707    2.4664 C.3     1  UNL1        0.0000
     12 H           9.0784    1.4201    1.6213 H       1  UNL1        0.0000
     13 C           7.6999    2.6527    2.6987 C.3     1  UNL1        0.0000
     14 H           6.8899    2.4282    2.0259 H       1  UNL1        0.0000
     15 C           7.3871    3.2065    4.0541 C.3     1  UNL1        0.0000
     16 C           8.5448    4.1503    4.1562 C.3     1  UNL1        0.0000
     17 H           8.4007    5.1058    4.6311 H       1  UNL1        0.0000
     18 C           9.8389    3.6635    4.0175 C.3     1  UNL1        0.0000
     19 H          10.6728    4.2431    4.3719 H       1  UNL1        0.0000
     20 C           7.3678    2.1429    5.1584 C.3     1  UNL1        0.0000
     21 H           8.3119    1.6052    5.1710 H       1  UNL1        0.0000
     22 H           6.5637    1.4310    4.9848 H       1  UNL1        0.0000
     23 H           7.2189    2.6084    6.1303 H       1  UNL1        0.0000
     24 C           6.0761    3.9726    4.0246 C.3     1  UNL1        0.0000
     25 H           5.9089    4.4921    4.9643 H       1  UNL1        0.0000
     26 H           5.2395    3.3034    3.8423 H       1  UNL1        0.0000
     27 H           6.1277    4.7000    3.2225 H       1  UNL1        0.0000
     28 C          10.6313    4.3362    1.0138 C.3     1  UNL1        0.0000
     29 C           9.4733    3.8447    0.3357 C.3     1  UNL1        0.0000
     30 H           9.5159    2.8733   -0.1241 H       1  UNL1        0.0000
     31 C           8.2502    4.4831    0.5019 C.3     1  UNL1        0.0000
     32 H           7.3586    3.9905    0.1532 H       1  UNL1        0.0000
     33 C           8.2183    5.9603    0.7450 C.3     1  UNL1        0.0000
     34 C           9.0956    5.9798    1.9582 C.3     1  UNL1        0.0000
     35 H           8.8695    6.6658    2.7567 H       1  UNL1        0.0000
     36 C          10.3728    5.4377    1.8866 C.3     1  UNL1        0.0000
     37 H          11.1095    5.6973    2.6259 H       1  UNL1        0.0000
     38 C           8.7754    6.7818   -0.4238 C.3     1  UNL1        0.0000
     39 H           9.7799    6.4464   -0.6667 H       1  UNL1        0.0000
     40 H           8.8144    7.8367   -0.1609 H       1  UNL1        0.0000
     41 H           8.1464    6.6638   -1.3035 H       1  UNL1        0.0000
     42 C           6.8127    6.4154    1.0963 C.3     1  UNL1        0.0000
     43 H           6.1387    6.2782    0.2549 H       1  UNL1        0.0000
     44 H           6.8051    7.4641    1.3817 H       1  UNL1        0.0000
     45 H           6.4614    5.8202    1.9313 H       1  UNL1        0.0000
@<TRIPOS>BOND
     1    41    38    1
     2    39    38    1
     3    38    40    1
     4    38    33    1
     5    30    29    1
     6     3     2    1
     7    32    31    1
     8    43    42    1
     9     4     2    1
    10    29    31    1
    11    29    28    1
    12    31    33    1
    13    33    42    1
    14    33    34    1
    15     2     5    1
    16     2     1    1
    17    28    36    1
    18    28     1    1
    19    42    44    1
    20    42    45    1
    21    12    11    1
    22    36    34    1
    23    36    37    1
    24     1     6    1
    25     1    10    1
    26    34    35    1
    27    14    13    1
    28     9     6    1
    29    11    13    1
    30    11    10    1
    31    13    15    1
    32     6     8    1
    33     6     7    1
    34    10    18    1
    35    27    24    1
    36    26    24    1
    37    18    16    1
    38    18    19    1
    39    24    15    1
    40    24    25    1
    41    15    16    1
    42    15    20    1
    43    16    17    1
    44    22    20    1
    45    20    21    1
    46    20    23    1
