@<TRIPOS>MOLECULE
5,6,7,8,9,10,11,12,13,14
 75 76 0 0 0
SMALL
GASTEIGER

@<TRIPOS>ATOM
      1 SI          5.8654    4.8206    8.7551 Si      1  UNL1        0.0000
      2 SI          3.2303    8.3258   12.6008 Si      1  UNL1        0.0000
      3 SI          1.6217    1.7131   10.9178 Si      1  UNL1        0.0000
      4 SI          4.5488    1.8314   13.5864 Si      1  UNL1        0.0000
      5 C           4.5883    6.0556    9.4120 C.2     1  UNL1        0.0000
      6 C           4.7702    6.8279   10.5845 C.3     1  UNL1        0.0000
      7 C           3.5081    7.1921   11.1205 C.2     1  UNL1        0.0000
      8 C           2.5255    6.6192   10.2640 C.2     1  UNL1        0.0000
      9 C           3.1806    5.9162    9.2377 C.2     1  UNL1        0.0000
     10 C           5.1859    3.4144    9.8233 C.3     1  UNL1        0.0000
     11 C           5.5446    3.1094   11.1583 C.3     1  UNL1        0.0000
     12 C           4.4518    2.4929   11.8234 C.3     1  UNL1        0.0000
     13 C           3.3692    2.4257   10.8812 C.2     1  UNL1        0.0000
     14 C           3.8393    2.9966    9.6744 C.2     1  UNL1        0.0000
     15 C           7.6163    5.3174    9.3756 C.3     1  UNL1        0.0000
     16 C           8.6649    4.2660    9.0227 C.3     1  UNL1        0.0000
     17 C           8.0562    6.6893    8.8699 C.3     1  UNL1        0.0000
     18 C           5.6052    4.4236    6.8909 C.3     1  UNL1        0.0000
     19 C           6.2233    5.4756    5.9759 C.3     1  UNL1        0.0000
     20 C           6.1251    3.0338    6.5303 C.3     1  UNL1        0.0000
     21 C           2.0928    9.7498   12.0180 C.3     1  UNL1        0.0000
     22 C           4.9287    9.0347   13.1157 C.3     1  UNL1        0.0000
     23 C           2.4119    7.4801   14.1044 C.3     1  UNL1        0.0000
     24 C           0.6002    2.9724    9.8826 C.3     1  UNL1        0.0000
     25 C           1.6840    0.0592    9.9536 C.3     1  UNL1        0.0000
     26 C           0.7292    1.3836   12.5689 C.3     1  UNL1        0.0000
     27 C           4.1890   -0.0486   13.5349 C.3     1  UNL1        0.0000
     28 C           3.3775    2.7130   14.8103 C.3     1  UNL1        0.0000
     29 C           6.3449    2.0546   14.2088 C.3     1  UNL1        0.0000
     30 H           5.7235    7.1662   10.9730 H       1  UNL1        0.0000
     31 H           1.4577    6.7985   10.3346 H       1  UNL1        0.0000
     32 H           2.6976    5.4687    8.3765 H       1  UNL1        0.0000
     33 H           6.5300    3.2483   11.5879 H       1  UNL1        0.0000
     34 H           3.2929    3.0053    8.7392 H       1  UNL1        0.0000
     35 H           7.5615    5.3738   10.4708 H       1  UNL1        0.0000
     36 H           9.6233    4.5126    9.4777 H       1  UNL1        0.0000
     37 H           8.3630    3.2813    9.3709 H       1  UNL1        0.0000
     38 H           8.8095    4.2194    7.9459 H       1  UNL1        0.0000
     39 H           8.9945    6.9836    9.3384 H       1  UNL1        0.0000
     40 H           8.2105    6.6716    7.7946 H       1  UNL1        0.0000
     41 H           7.3105    7.4480    9.0917 H       1  UNL1        0.0000
     42 H           4.5258    4.4273    6.7039 H       1  UNL1        0.0000
     43 H           7.3074    5.4583    6.0538 H       1  UNL1        0.0000
     44 H           5.9608    5.2805    4.9369 H       1  UNL1        0.0000
     45 H           5.8734    6.4713    6.2366 H       1  UNL1        0.0000
     46 H           5.8942    2.7985    5.4923 H       1  UNL1        0.0000
     47 H           5.6742    2.2742    7.1638 H       1  UNL1        0.0000
     48 H           7.2033    2.9827    6.6547 H       1  UNL1        0.0000
     49 H           1.1076    9.3890   11.7411 H       1  UNL1        0.0000
     50 H           2.5071   10.2677   11.1593 H       1  UNL1        0.0000
     51 H           1.9627   10.4784   12.8105 H       1  UNL1        0.0000
     52 H           4.8133    9.7416   13.9306 H       1  UNL1        0.0000
     53 H           5.4138    9.5574   12.2971 H       1  UNL1        0.0000
     54 H           5.5941    8.2473   13.4565 H       1  UNL1        0.0000
     55 H           1.4139    7.1192   13.8716 H       1  UNL1        0.0000
     56 H           2.3231    8.1803   14.9300 H       1  UNL1        0.0000
     57 H           2.9971    6.6321   14.4527 H       1  UNL1        0.0000
     58 H          -0.4593    2.8878   10.1012 H       1  UNL1        0.0000
     59 H           0.7192    2.8078    8.8152 H       1  UNL1        0.0000
     60 H           0.8991    3.9987   10.1056 H       1  UNL1        0.0000
     61 H           0.6831   -0.3156    9.7689 H       1  UNL1        0.0000
     62 H           2.2216   -0.7029   10.5077 H       1  UNL1        0.0000
     63 H           2.1772    0.1696    8.9934 H       1  UNL1        0.0000
     64 H          -0.1913    0.8411   12.3744 H       1  UNL1        0.0000
     65 H           1.3220    0.7859   13.2515 H       1  UNL1        0.0000
     66 H           0.4668    2.3095   13.0676 H       1  UNL1        0.0000
     67 H           3.3142   -0.2873   12.9408 H       1  UNL1        0.0000
     68 H           4.0280   -0.4334   14.5359 H       1  UNL1        0.0000
     69 H           5.0279   -0.5892   13.1092 H       1  UNL1        0.0000
     70 H           2.3351    2.6295   14.5230 H       1  UNL1        0.0000
     71 H           3.4802    2.2896   15.8054 H       1  UNL1        0.0000
     72 H           3.6151    3.7722   14.8791 H       1  UNL1        0.0000
     73 H           6.6139    3.1048   14.2668 H       1  UNL1        0.0000
     74 H           6.4548    1.6336   15.2031 H       1  UNL1        0.0000
     75 H           7.0628    1.5558   13.5647 H       1  UNL1        0.0000
@<TRIPOS>BOND
     1    44    19    1
     2    46    20    1
     3    19    43    1
     4    19    45    1
     5    19    18    1
     6    20    48    1
     7    20    18    1
     8    20    47    1
     9    42    18    1
    10    18     1    1
    11    40    17    1
    12    38    16    1
    13    32     9    1
    14    34    14    1
    15     1    15    1
    16     1     5    1
    17     1    10    1
    18    59    24    1
    19    17    41    1
    20    17    39    1
    21    17    15    1
    22    63    25    1
    23    16    37    1
    24    16    15    1
    25    16    36    1
    26     9     5    2
    27     9     8    1
    28    15    35    1
    29     5     6    1
    30    14    10    1
    31    14    13    2
    32    61    25    1
    33    10    11    1
    34    24    58    1
    35    24    60    1
    36    24     3    1
    37    25    62    1
    38    25     3    1
    39     8    31    1
    40     8     7    2
    41     6    30    1
    42     6     7    1
    43    13     3    1
    44    13    12    1
    45     3    26    1
    46     7     2    1
    47    11    33    1
    48    11    12    1
    49    50    21    1
    50    49    21    1
    51    12     4    1
    52    21     2    1
    53    21    51    1
    54    53    22    1
    55    64    26    1
    56    26    66    1
    57    26    65    1
    58     2    22    1
    59     2    23    1
    60    67    27    1
    61    69    27    1
    62    22    54    1
    63    22    52    1
    64    27     4    1
    65    27    68    1
    66    75    29    1
    67     4    29    1
    68     4    28    1
    69    55    23    1
    70    23    57    1
    71    23    56    1
    72    29    73    1
    73    29    74    1
    74    70    28    1
    75    28    72    1
    76    28    71    1
