@<TRIPOS>MOLECULE
5,6,7,8,9,10,11,12,13
 61 63 0 0 0
SMALL
GASTEIGER

@<TRIPOS>ATOM
      1 SI          1.7476    4.7226    3.1734 Si      1  UNL1        0.0000
      2 SI          1.3195    3.2251    1.3365 Si      1  UNL1        0.0000
      3 SI          2.2760    1.2466    4.2982 Si      1  UNL1        0.0000
      4 C           0.9632    3.8940    4.6741 C.3     1  UNL1        0.0000
      5 C           1.2884    2.5950    5.1870 C.3     1  UNL1        0.0000
      6 C           0.3472    2.3004    6.2098 C.2     1  UNL1        0.0000
      7 C          -0.5091    3.4093    6.3725 C.2     1  UNL1        0.0000
      8 C          -0.1352    4.3833    5.4297 C.3     1  UNL1        0.0000
      9 C           0.3647    1.7500    2.0534 C.3     1  UNL1        0.0000
     10 C           0.8299    0.8734    3.1145 C.3     1  UNL1        0.0000
     11 C          -0.2547    0.0226    3.4638 C.2     1  UNL1        0.0000
     12 C          -1.3502    0.3268    2.6273 C.2     1  UNL1        0.0000
     13 C          -0.9835    1.3769    1.7592 C.3     1  UNL1        0.0000
     14 C          -0.2711   -1.1214    4.4443 C.3     1  UNL1        0.0000
     15 C          -0.4798   -2.4505    3.7079 C.3     1  UNL1        0.0000
     16 C          -1.3720   -0.9125    5.4908 C.3     1  UNL1        0.0000
     17 C          -1.8538    1.8646    0.6290 C.3     1  UNL1        0.0000
     18 C          -3.3374    1.8097    1.0094 C.3     1  UNL1        0.0000
     19 C          -1.5823    1.0157   -0.6193 C.3     1  UNL1        0.0000
     20 C           3.5881    5.1015    3.5727 C.3     1  UNL1        0.0000
     21 C           0.9626    6.4490    2.9139 C.3     1  UNL1        0.0000
     22 C           0.4537    4.2802   -0.0106 C.3     1  UNL1        0.0000
     23 C           2.8033    2.4778    0.3633 C.3     1  UNL1        0.0000
     24 C           3.9417    1.6736    3.4801 C.3     1  UNL1        0.0000
     25 C           2.7992   -0.0851    5.5763 C.3     1  UNL1        0.0000
     26 H           0.3862    1.4443    6.8733 H       1  UNL1        0.0000
     27 H          -1.2620    3.5232    7.1436 H       1  UNL1        0.0000
     28 H          -0.5578    5.3783    5.3499 H       1  UNL1        0.0000
     29 H          -2.2804   -0.2245    2.5921 H       1  UNL1        0.0000
     30 H           0.6927   -1.1753    4.9522 H       1  UNL1        0.0000
     31 H          -0.4372   -3.2816    4.4085 H       1  UNL1        0.0000
     32 H           0.2942   -2.5891    2.9568 H       1  UNL1        0.0000
     33 H          -1.4468   -2.4697    3.2123 H       1  UNL1        0.0000
     34 H          -1.3313   -1.6956    6.2462 H       1  UNL1        0.0000
     35 H          -2.3558   -0.9407    5.0251 H       1  UNL1        0.0000
     36 H          -1.2616    0.0575    5.9845 H       1  UNL1        0.0000
     37 H          -1.6040    2.9028    0.4019 H       1  UNL1        0.0000
     38 H          -3.6937    0.7827    1.0587 H       1  UNL1        0.0000
     39 H          -3.9313    2.3349    0.2646 H       1  UNL1        0.0000
     40 H          -3.5019    2.2861    1.9790 H       1  UNL1        0.0000
     41 H          -2.1868    1.3634   -1.4538 H       1  UNL1        0.0000
     42 H          -1.8241   -0.0274   -0.4266 H       1  UNL1        0.0000
     43 H          -0.5323    1.0784   -0.8954 H       1  UNL1        0.0000
     44 H           4.1901    5.1091    2.6706 H       1  UNL1        0.0000
     45 H           3.6806    6.0821    4.0282 H       1  UNL1        0.0000
     46 H           4.0219    4.3838    4.2579 H       1  UNL1        0.0000
     47 H          -0.0983    6.3814    2.7019 H       1  UNL1        0.0000
     48 H           1.0906    7.0751    3.7931 H       1  UNL1        0.0000
     49 H           1.4359    6.9593    2.0810 H       1  UNL1        0.0000
     50 H          -0.4149    4.8028    0.3741 H       1  UNL1        0.0000
     51 H           0.1520    3.6971   -0.8753 H       1  UNL1        0.0000
     52 H           1.1553    5.0318   -0.3624 H       1  UNL1        0.0000
     53 H           3.1340    1.5260    0.7611 H       1  UNL1        0.0000
     54 H           2.5291    2.3180   -0.6749 H       1  UNL1        0.0000
     55 H           3.6508    3.1547    0.3658 H       1  UNL1        0.0000
     56 H           3.8918    2.4924    2.7788 H       1  UNL1        0.0000
     57 H           4.3251    0.8037    2.9573 H       1  UNL1        0.0000
     58 H           4.6664    1.9300    4.2453 H       1  UNL1        0.0000
     59 H           3.7043    0.2486    6.0748 H       1  UNL1        0.0000
     60 H           2.0621   -0.2725    6.3492 H       1  UNL1        0.0000
     61 H           3.0319   -1.0287    5.0935 H       1  UNL1        0.0000
@<TRIPOS>BOND
     1    41    19    1
     2    43    19    1
     3    51    22    1
     4    54    23    1
     5    19    42    1
     6    19    17    1
     7    52    22    1
     8    22    50    1
     9    22     2    1
    10    39    18    1
    11    23    55    1
    12    23    53    1
    13    23     2    1
    14    37    17    1
    15    17    18    1
    16    17    13    1
    17    18    38    1
    18    18    40    1
    19     2     9    1
    20     2     1    1
    21    13     9    1
    22    13    12    1
    23     9    10    1
    24    49    21    1
    25    29    12    1
    26    12    11    2
    27    44    20    1
    28    47    21    1
    29    56    24    1
    30    21     1    1
    31    21    48    1
    32    32    15    1
    33    57    24    1
    34    10    11    1
    35    10     3    1
    36     1    20    1
    37     1     4    1
    38    33    15    1
    39    11    14    1
    40    24    58    1
    41    24     3    1
    42    20    45    1
    43    20    46    1
    44    15    31    1
    45    15    14    1
    46     3     5    1
    47     3    25    1
    48    14    30    1
    49    14    16    1
    50     4     5    1
    51     4     8    1
    52    35    16    1
    53    61    25    1
    54     5     6    1
    55    28     8    1
    56     8     7    1
    57    16    36    1
    58    16    34    1
    59    25    59    1
    60    25    60    1
    61     6     7    2
    62     6    26    1
    63     7    27    1
