@<TRIPOS>MOLECULE
3,4,5,6,7,10,11,12,13,14
 34 36 0 0 0
SMALL
GASTEIGER

@<TRIPOS>ATOM
      1 SI          4.5787    4.2496    3.5626 Si      1  UNL1        0.0000
      2 SI          5.9788    7.0218    5.0206 Si      1  UNL1        0.0000
      3 C           5.1394    4.2388    5.3666 C.3     1  UNL1        0.0000
      4 C           4.5991    3.4541    6.4143 C.3     1  UNL1        0.0000
      5 C           4.8824    4.0879    7.6435 C.2     1  UNL1        0.0000
      6 C           5.5788    5.2769    7.3673 C.2     1  UNL1        0.0000
      7 C           5.7473    5.3930    5.9658 C.3     1  UNL1        0.0000
      8 C           3.3201    2.8371    3.2889 C.3     1  UNL1        0.0000
      9 C           5.9545    4.1573    2.2431 C.3     1  UNL1        0.0000
     10 C           4.2150    7.0402    4.3230 C.3     1  UNL1        0.0000
     11 C           3.1622    7.8610    4.7937 C.2     1  UNL1        0.0000
     12 C           1.9369    7.2282    4.5206 C.2     1  UNL1        0.0000
     13 C           2.2157    5.9944    3.8893 C.3     1  UNL1        0.0000
     14 C           3.6208    5.8719    3.7403 C.3     1  UNL1        0.0000
     15 C           7.3842    7.1024    3.7295 C.3     1  UNL1        0.0000
     16 C           6.1608    8.4389    6.2920 C.3     1  UNL1        0.0000
     17 H           4.1641    2.4675    6.3028 H       1  UNL1        0.0000
     18 H           4.6923    3.6783    8.6281 H       1  UNL1        0.0000
     19 H           5.9912    5.9484    8.1110 H       1  UNL1        0.0000
     20 H           3.2746    8.8521    5.2175 H       1  UNL1        0.0000
     21 H           0.9565    7.6679    4.6584 H       1  UNL1        0.0000
     22 H           1.4775    5.3304    3.4533 H       1  UNL1        0.0000
     23 H           3.8067    1.8703    3.3548 H       1  UNL1        0.0000
     24 H           2.5221    2.8636    4.0275 H       1  UNL1        0.0000
     25 H           2.8705    2.9048    2.3044 H       1  UNL1        0.0000
     26 H           6.0159    3.1522    1.8407 H       1  UNL1        0.0000
     27 H           5.7552    4.8300    1.4162 H       1  UNL1        0.0000
     28 H           6.9246    4.4070    2.6553 H       1  UNL1        0.0000
     29 H           7.7545    8.1185    3.6507 H       1  UNL1        0.0000
     30 H           8.2179    6.4709    4.0155 H       1  UNL1        0.0000
     31 H           7.0499    6.7967    2.7459 H       1  UNL1        0.0000
     32 H           6.1323    9.4067    5.8015 H       1  UNL1        0.0000
     33 H           5.3636    8.4139    7.0329 H       1  UNL1        0.0000
     34 H           7.1089    8.3720    6.8161 H       1  UNL1        0.0000
@<TRIPOS>BOND
     1    27     9    1
     2    26     9    1
     3     9    28    1
     4     9     1    1
     5    25     8    1
     6    31    15    1
     7     8    23    1
     8     8     1    1
     9     8    24    1
    10    22    13    1
    11     1    14    1
    12     1     3    1
    13    29    15    1
    14    15    30    1
    15    15     2    1
    16    14    13    1
    17    14    10    1
    18    13    12    1
    19    10    11    1
    20    10     2    1
    21    12    21    1
    22    12    11    2
    23    11    20    1
    24     2     7    1
    25     2    16    1
    26     3     7    1
    27     3     4    1
    28    32    16    1
    29     7     6    1
    30    16    34    1
    31    16    33    1
    32    17     4    1
    33     4     5    1
    34     6     5    2
    35     6    19    1
    36     5    18    1
