@<TRIPOS>MOLECULE
2,3,5,7,8,9,10,12,13,14
 52 56 0 0 0
SMALL
GASTEIGER

@<TRIPOS>ATOM
      1 SI          8.6187    7.9466    3.1591 Si      1  UNL1        0.0000
      2 C           8.2468    6.5364    4.3644 C.3     1  UNL1        0.0000
      3 C           9.0447    5.3567    4.4246 C.2     1  UNL1        0.0000
      4 H           9.6322    4.9677    3.5994 H       1  UNL1        0.0000
      5 C           8.8521    4.6928    5.6436 C.2     1  UNL1        0.0000
      6 H           9.2577    3.7273    5.9166 H       1  UNL1        0.0000
      7 C           7.9319    5.4565    6.4150 C.3     1  UNL1        0.0000
      8 C           7.5673    6.6227    5.6303 C.3     1  UNL1        0.0000
      9 C           9.9636    8.6760    4.2725 C.3     1  UNL1        0.0000
     10 C          11.2776    8.1231    4.3711 C.2     1  UNL1        0.0000
     11 H          11.7736    7.5575    3.5865 H       1  UNL1        0.0000
     12 C          11.8939    8.5223    5.5728 C.2     1  UNL1        0.0000
     13 C          10.9649    9.3547    6.2732 C.ar    1  UNL1        0.0000
     14 C           9.7535    9.4237    5.4815 C.ar    1  UNL1        0.0000
     15 C           6.6658    7.5572    6.1824 C.2     1  UNL1        0.0000
     16 H           6.3409    8.4125    5.6057 H       1  UNL1        0.0000
     17 C           6.1487    7.3321    7.4347 C.2     1  UNL1        0.0000
     18 H           5.4554    8.0419    7.8609 H       1  UNL1        0.0000
     19 C           6.4873    6.1879    8.1782 C.2     1  UNL1        0.0000
     20 H           6.0447    6.0505    9.1529 H       1  UNL1        0.0000
     21 C           7.3613    5.2525    7.6856 C.2     1  UNL1        0.0000
     22 H           7.6122    4.3672    8.2549 H       1  UNL1        0.0000
     23 C           8.6718   10.1925    5.9564 C.ar    1  UNL1        0.0000
     24 H           7.7797   10.3059    5.3558 H       1  UNL1        0.0000
     25 C           8.7952   10.8539    7.1532 C.ar    1  UNL1        0.0000
     26 H           7.9722   11.4475    7.5227 H       1  UNL1        0.0000
     27 C           9.9808   10.7988    7.9067 C.ar    1  UNL1        0.0000
     28 H          10.0353   11.3507    8.8324 H       1  UNL1        0.0000
     29 C          11.0623   10.0704    7.4811 C.ar    1  UNL1        0.0000
     30 H          11.9809   10.0514    8.0511 H       1  UNL1        0.0000
     31 C          13.3178    8.2841    5.9931 C.3     1  UNL1        0.0000
     32 H          13.7835    7.5685    5.3068 H       1  UNL1        0.0000
     33 H          13.3472    7.8487    6.9984 H       1  UNL1        0.0000
     34 C          14.0969    9.5782    5.9826 C.ar    1  UNL1        0.0000
     35 C          14.8924    9.9426    7.0598 C.ar    1  UNL1        0.0000
     36 H          14.9614    9.2897    7.9189 H       1  UNL1        0.0000
     37 C          15.5994   11.1327    7.0421 C.ar    1  UNL1        0.0000
     38 H          16.2150   11.4043    7.8873 H       1  UNL1        0.0000
     39 C          15.5157   11.9740    5.9465 C.ar    1  UNL1        0.0000
     40 H          16.0647   12.9041    5.9333 H       1  UNL1        0.0000
     41 C          14.7228   11.6186    4.8681 C.ar    1  UNL1        0.0000
     42 H          14.6521   12.2720    4.0104 H       1  UNL1        0.0000
     43 C          14.0185   10.4290    4.8865 C.ar    1  UNL1        0.0000
     44 H          13.3961   10.1569    4.0460 H       1  UNL1        0.0000
     45 C           9.3841    7.2722    1.5470 C.3     1  UNL1        0.0000
     46 H           8.6604    6.6777    1.0001 H       1  UNL1        0.0000
     47 H          10.2533    6.6483    1.7278 H       1  UNL1        0.0000
     48 H           9.6924    8.0868    0.9006 H       1  UNL1        0.0000
     49 C           7.1749    9.1050    2.7087 C.3     1  UNL1        0.0000
     50 H           6.5791    8.6618    1.9180 H       1  UNL1        0.0000
     51 H           7.5514   10.0551    2.3440 H       1  UNL1        0.0000
     52 H           6.5098    9.3081    3.5397 H       1  UNL1        0.0000
@<TRIPOS>BOND
     1    48    45    1
     2    46    45    1
     3    45    47    1
     4    45     1    1
     5    50    49    1
     6    51    49    1
     7    49     1    1
     8    49    52    1
     9     1     9    1
    10     1     2    1
    11    11    10    1
    12     4     3    1
    13    42    41    1
    14    44    43    1
    15     9    10    1
    16     9    14    1
    17     2     3    1
    18     2     8    1
    19    10    12    2
    20     3     5    2
    21    41    43   ar
    22    41    39   ar
    23    43    34   ar
    24    32    31    1
    25    24    23    1
    26    14    23   ar
    27    14    13   ar
    28    12    31    1
    29    12    13    1
    30    16    15    1
    31     8    15    1
    32     8     7    1
    33     5     6    1
    34     5     7    1
    35    40    39    1
    36    39    37   ar
    37    23    25   ar
    38    34    31    1
    39    34    35   ar
    40    31    33    1
    41    15    17    2
    42    13    29   ar
    43     7    21    1
    44    37    35   ar
    45    37    38    1
    46    35    36    1
    47    25    26    1
    48    25    27   ar
    49    17    18    1
    50    17    19    1
    51    29    27   ar
    52    29    30    1
    53    21    19    2
    54    21    22    1
    55    27    28    1
    56    19    20    1
