@<TRIPOS>MOLECULE
2,3,4,5,6,7,8,9,10,11
 57 58 0 0 0
SMALL
GASTEIGER

@<TRIPOS>ATOM
      1 SI          7.8137    4.0183    9.0887 Si      1  UNL1        0.0000
      2 C           6.6855    2.8697    8.1105 C.3     1  UNL1        0.0000
      3 C           7.0239    1.9989    7.0369 C.3     1  UNL1        0.0000
      4 C           5.8375    1.6978    6.3291 C.3     1  UNL1        0.0000
      5 C           4.7555    2.3902    6.9328 C.2     1  UNL1        0.0000
      6 C           5.2897    3.1368    7.9987 C.2     1  UNL1        0.0000
      7 C           7.9513    5.2588    7.6782 C.3     1  UNL1        0.0000
      8 C           6.9957    6.2217    7.2491 C.3     1  UNL1        0.0000
      9 C           7.3205    6.5986    5.9256 C.3     1  UNL1        0.0000
     10 C           8.4604    5.8637    5.5066 C.2     1  UNL1        0.0000
     11 C           8.8167    5.0165    6.5715 C.2     1  UNL1        0.0000
     12 C           6.9768    4.6347   10.6930 C.3     1  UNL1        0.0000
     13 C           9.5192    3.3239    9.6027 C.3     1  UNL1        0.0000
     14 C           8.3807    1.4151    6.7364 C.3     1  UNL1        0.0000
     15 C           3.2882    2.1759    6.6237 C.3     1  UNL1        0.0000
     16 C           2.4385    3.3021    7.2229 C.3     1  UNL1        0.0000
     17 C           3.0582    2.1499    5.1091 C.3     1  UNL1        0.0000
     18 C           2.8594    0.8318    7.2334 C.3     1  UNL1        0.0000
     19 C           5.8848    6.8169    8.0756 C.3     1  UNL1        0.0000
     20 C           9.2632    6.1177    4.2473 C.3     1  UNL1        0.0000
     21 C          10.1785    4.9273    3.9391 C.3     1  UNL1        0.0000
     22 C          10.1183    7.3757    4.4679 C.3     1  UNL1        0.0000
     23 C           8.3313    6.3340    3.0505 C.3     1  UNL1        0.0000
     24 H           5.7489    0.9379    5.5623 H       1  UNL1        0.0000
     25 H           4.7178    3.6902    8.7317 H       1  UNL1        0.0000
     26 H           6.8747    7.4275    5.3897 H       1  UNL1        0.0000
     27 H           9.7074    4.4045    6.6216 H       1  UNL1        0.0000
     28 H           5.9360    4.9009   10.5503 H       1  UNL1        0.0000
     29 H           7.0148    3.8588   11.4500 H       1  UNL1        0.0000
     30 H           7.4931    5.5023   11.0901 H       1  UNL1        0.0000
     31 H          10.1772    3.1534    8.7583 H       1  UNL1        0.0000
     32 H          10.0161    4.0234   10.2663 H       1  UNL1        0.0000
     33 H           9.4113    2.3869   10.1392 H       1  UNL1        0.0000
     34 H           8.2761    0.3948    6.3640 H       1  UNL1        0.0000
     35 H           8.9100    1.9986    5.9728 H       1  UNL1        0.0000
     36 H           8.9914    1.3858    7.6366 H       1  UNL1        0.0000
     37 H           2.4721    3.2818    8.3097 H       1  UNL1        0.0000
     38 H           2.8032    4.2663    6.8702 H       1  UNL1        0.0000
     39 H           1.4006    3.1893    6.9160 H       1  UNL1        0.0000
     40 H           3.6299    1.3573    4.6316 H       1  UNL1        0.0000
     41 H           2.0053    1.9850    4.8869 H       1  UNL1        0.0000
     42 H           3.3565    3.1043    4.6786 H       1  UNL1        0.0000
     43 H           3.0349    0.8303    8.3069 H       1  UNL1        0.0000
     44 H           1.8015    0.6528    7.0525 H       1  UNL1        0.0000
     45 H           3.4292    0.0169    6.7937 H       1  UNL1        0.0000
     46 H           4.9646    6.2237    8.0040 H       1  UNL1        0.0000
     47 H           5.6622    7.8275    7.7312 H       1  UNL1        0.0000
     48 H           6.1779    6.8734    9.1227 H       1  UNL1        0.0000
     49 H           9.5872    4.0143    3.8767 H       1  UNL1        0.0000
     50 H          10.6821    5.0812    2.9867 H       1  UNL1        0.0000
     51 H          10.9400    4.8093    4.7065 H       1  UNL1        0.0000
     52 H          10.7736    7.2421    5.3256 H       1  UNL1        0.0000
     53 H          10.7289    7.5787    3.5905 H       1  UNL1        0.0000
     54 H           9.4827    8.2377    4.6554 H       1  UNL1        0.0000
     55 H           7.7233    5.4445    2.8955 H       1  UNL1        0.0000
     56 H           7.6719    7.1848    3.2057 H       1  UNL1        0.0000
     57 H           8.9099    6.5186    2.1470 H       1  UNL1        0.0000
@<TRIPOS>BOND
     1    57    23    1
     2    55    23    1
     3    50    21    1
     4    23    56    1
     5    23    20    1
     6    53    22    1
     7    49    21    1
     8    21    20    1
     9    21    51    1
    10    20    22    1
    11    20    10    1
    12    22    54    1
    13    22    52    1
    14    40    17    1
    15    42    17    1
    16    41    17    1
    17    17    15    1
    18    26     9    1
    19    10     9    1
    20    10    11    2
    21    24     4    1
    22     9     8    1
    23    35    14    1
    24     4     5    1
    25     4     3    1
    26    34    14    1
    27    11    27    1
    28    11     7    1
    29    15     5    1
    30    15    16    1
    31    15    18    1
    32    14     3    1
    33    14    36    1
    34    45    18    1
    35    38    16    1
    36    39    16    1
    37     5     6    2
    38     3     2    1
    39    44    18    1
    40    16    37    1
    41    18    43    1
    42     8     7    1
    43     8    19    1
    44     7     1    1
    45    47    19    1
    46     6     2    1
    47     6    25    1
    48    46    19    1
    49    19    48    1
    50     2     1    1
    51    31    13    1
    52     1    13    1
    53     1    12    1
    54    13    33    1
    55    13    32    1
    56    28    12    1
    57    12    30    1
    58    12    29    1
