@<TRIPOS>MOLECULE
2,3,4,5,6,7,8,9,10,11
 51 52 0 0 0
SMALL
GASTEIGER

@<TRIPOS>ATOM
      1 SI         -4.7465   -0.2249    8.1645 Si      1  UNL1        0.0000
      2 C          -3.8127    0.1412    6.5658 C.3     1  UNL1        0.0000
      3 C          -2.4811    0.6165    6.4969 C.2     1  UNL1        0.0000
      4 C          -1.9558    0.3561    5.2143 C.2     1  UNL1        0.0000
      5 C          -2.9526   -0.3452    4.4865 C.3     1  UNL1        0.0000
      6 C          -4.0915   -0.4839    5.3161 C.3     1  UNL1        0.0000
      7 C          -4.1961   -2.0262    8.1908 C.3     1  UNL1        0.0000
      8 C          -2.9783   -2.5241    8.7286 C.3     1  UNL1        0.0000
      9 C          -2.6980   -3.7818    8.1408 C.3     1  UNL1        0.0000
     10 C          -3.7329   -4.0476    7.2088 C.2     1  UNL1        0.0000
     11 C          -4.6289   -2.9655    7.2152 C.2     1  UNL1        0.0000
     12 C          -4.0615    0.7724    9.6376 C.3     1  UNL1        0.0000
     13 C          -6.6341   -0.0096    7.9961 C.3     1  UNL1        0.0000
     14 C          -0.6705    0.8947    4.6192 C.3     1  UNL1        0.0000
     15 C           0.1365   -0.2542    4.0042 C.3     1  UNL1        0.0000
     16 C          -1.0308    1.9097    3.5223 C.3     1  UNL1        0.0000
     17 C           0.1842    1.5911    5.6824 C.3     1  UNL1        0.0000
     18 C          -1.6031   -4.7704    8.4894 C.3     1  UNL1        0.0000
     19 C          -0.6796   -4.2193    9.5800 C.3     1  UNL1        0.0000
     20 C          -0.7767   -5.0719    7.2286 C.3     1  UNL1        0.0000
     21 C          -2.2514   -6.0692    8.9950 C.3     1  UNL1        0.0000
     22 H          -1.9955    1.1893    7.2761 H       1  UNL1        0.0000
     23 H          -2.9067   -0.5851    3.4313 H       1  UNL1        0.0000
     24 H          -5.0627   -0.8558    5.0068 H       1  UNL1        0.0000
     25 H          -2.4314   -2.0657    9.5450 H       1  UNL1        0.0000
     26 H          -3.8745   -4.9738    6.6727 H       1  UNL1        0.0000
     27 H          -5.5718   -2.9313    6.6816 H       1  UNL1        0.0000
     28 H          -4.5299    0.4607   10.5646 H       1  UNL1        0.0000
     29 H          -2.9892    0.6417    9.7462 H       1  UNL1        0.0000
     30 H          -4.2564    1.8317    9.5109 H       1  UNL1        0.0000
     31 H          -7.1412   -0.3531    8.8909 H       1  UNL1        0.0000
     32 H          -6.8914    1.0337    7.8493 H       1  UNL1        0.0000
     33 H          -7.0301   -0.5700    7.1560 H       1  UNL1        0.0000
     34 H           0.3916   -0.9786    4.7781 H       1  UNL1        0.0000
     35 H          -0.4305   -0.7535    3.2199 H       1  UNL1        0.0000
     36 H           1.0600    0.1227    3.5683 H       1  UNL1        0.0000
     37 H          -1.6340    2.7149    3.9359 H       1  UNL1        0.0000
     38 H          -0.1264    2.3381    3.0954 H       1  UNL1        0.0000
     39 H          -1.5948    1.4322    2.7250 H       1  UNL1        0.0000
     40 H           0.4256    0.9020    6.4886 H       1  UNL1        0.0000
     41 H           1.1147    1.9385    5.2382 H       1  UNL1        0.0000
     42 H          -0.3369    2.4528    6.0933 H       1  UNL1        0.0000
     43 H          -1.2377   -4.0289   10.4943 H       1  UNL1        0.0000
     44 H           0.1017   -4.9428    9.8039 H       1  UNL1        0.0000
     45 H          -0.2061   -3.2961    9.2530 H       1  UNL1        0.0000
     46 H          -0.2871   -4.1621    6.8727 H       1  UNL1        0.0000
     47 H          -0.0101   -5.8133    7.4494 H       1  UNL1        0.0000
     48 H          -1.4134   -5.4587    6.4328 H       1  UNL1        0.0000
     49 H          -2.8777   -5.8651    9.8606 H       1  UNL1        0.0000
     50 H          -2.8710   -6.5186    8.2232 H       1  UNL1        0.0000
     51 H          -1.4852   -6.7860    9.2831 H       1  UNL1        0.0000
@<TRIPOS>BOND
     1    39    16    1
     2    38    16    1
     3    35    15    1
     4    23     5    1
     5    16    37    1
     6    16    14    1
     7    36    15    1
     8    15    14    1
     9    15    34    1
    10     5     4    1
    11     5     6    1
    12    14     4    1
    13    14    17    1
    14    24     6    1
    15     4     3    2
    16    41    17    1
    17     6     2    1
    18    17    42    1
    19    17    40    1
    20    48    20    1
    21     3     2    1
    22     3    22    1
    23     2     1    1
    24    26    10    1
    25    27    11    1
    26    46    20    1
    27    33    13    1
    28    10    11    2
    29    10     9    1
    30    11     7    1
    31    20    47    1
    32    20    18    1
    33    32    13    1
    34    13     1    1
    35    13    31    1
    36     9    18    1
    37     9     8    1
    38     1     7    1
    39     1    12    1
    40     7     8    1
    41    50    21    1
    42    18    21    1
    43    18    19    1
    44     8    25    1
    45    21    51    1
    46    21    49    1
    47    45    19    1
    48    30    12    1
    49    19    44    1
    50    19    43    1
    51    12    29    1
    52    12    28    1
