@<TRIPOS>MOLECULE
2,3,4,5,10,22,23,24,26
 39 42 0 0 0
SMALL
GASTEIGER

@<TRIPOS>ATOM
      1 SI         -1.1819    0.1935    2.5323 Si      1  UNL1        0.0000
      2 C          -0.5460    1.4790    1.3108 C.3     1  UNL1        0.0000
      3 C          -1.4024    2.1979    0.4282 C.2     1  UNL1        0.0000
      4 C          -0.7287    3.3098   -0.1060 C.2     1  UNL1        0.0000
      5 C           0.5885    3.3068    0.4198 C.ar    1  UNL1        0.0000
      6 C           1.7250    4.0780    0.1312 C.ar    1  UNL1        0.0000
      7 C           2.9116    3.7839    0.7551 C.ar    1  UNL1        0.0000
      8 C           3.0046    2.7315    1.6789 C.ar    1  UNL1        0.0000
      9 C           1.9197    1.9432    1.9741 C.ar    1  UNL1        0.0000
     10 C           0.6903    2.1987    1.3404 C.ar    1  UNL1        0.0000
     11 C           0.1468   -0.9325    3.3079 C.3     1  UNL1        0.0000
     12 H          -2.3617    1.8283    0.0840 H       1  UNL1        0.0000
     13 H          -1.0832    3.9435   -0.9054 H       1  UNL1        0.0000
     14 H           1.6640    4.8791   -0.5929 H       1  UNL1        0.0000
     15 H           3.7963    4.3628    0.5315 H       1  UNL1        0.0000
     16 H           3.9566    2.5329    2.1504 H       1  UNL1        0.0000
     17 H           2.0211    1.1052    2.6500 H       1  UNL1        0.0000
     18 H          -0.3248   -1.7579    3.8307 H       1  UNL1        0.0000
     19 H           0.7737   -0.4114    4.0228 H       1  UNL1        0.0000
     20 H           0.7909   -1.3524    2.5427 H       1  UNL1        0.0000
     21 C          -1.8177    1.4790    3.7538 C.3     1  UNL1        0.0000
     22 C          -0.9614    2.1979    4.6363 C.2     1  UNL1        0.0000
     23 C          -3.0540    2.1987    3.7241 C.ar    1  UNL1        0.0000
     24 C          -1.6351    3.3098    5.1705 C.2     1  UNL1        0.0000
     25 H          -0.0021    1.8283    4.9806 H       1  UNL1        0.0000
     26 C          -2.9523    3.3068    4.6448 C.ar    1  UNL1        0.0000
     27 C          -4.0888    4.0780    4.9333 C.ar    1  UNL1        0.0000
     28 C          -5.2754    3.7839    4.3094 C.ar    1  UNL1        0.0000
     29 C          -5.3684    2.7315    3.3856 C.ar    1  UNL1        0.0000
     30 C          -4.2835    1.9432    3.0904 C.ar    1  UNL1        0.0000
     31 H          -4.3849    1.1052    2.4145 H       1  UNL1        0.0000
     32 H          -6.3204    2.5329    2.9141 H       1  UNL1        0.0000
     33 H          -6.1601    4.3628    4.5330 H       1  UNL1        0.0000
     34 H          -4.0278    4.8791    5.6574 H       1  UNL1        0.0000
     35 H          -1.2806    3.9435    5.9700 H       1  UNL1        0.0000
     36 C          -2.5106   -0.9325    1.7566 C.3     1  UNL1        0.0000
     37 H          -2.0390   -1.7578    1.2338 H       1  UNL1        0.0000
     38 H          -3.1375   -0.4114    1.0418 H       1  UNL1        0.0000
     39 H          -3.1546   -1.3524    2.5219 H       1  UNL1        0.0000
@<TRIPOS>BOND
     1    13     4    1
     2    14     6    1
     3     4     5    1
     4     4     3    2
     5    12     3    1
     6     6     5   ar
     7     6     7   ar
     8     5    10   ar
     9     3     2    1
    10    15     7    1
    11     7     8   ar
    12    38    36    1
    13    37    36    1
    14     2    10    1
    15     2     1    1
    16    10     9   ar
    17     8     9   ar
    18     8    16    1
    19    36    39    1
    20    36     1    1
    21     9    17    1
    22    31    30    1
    23     1    11    1
    24     1    21    1
    25    20    11    1
    26    32    29    1
    27    30    29   ar
    28    30    23   ar
    29    11    18    1
    30    11    19    1
    31    29    28   ar
    32    23    21    1
    33    23    26   ar
    34    21    22    1
    35    28    33    1
    36    28    27   ar
    37    22    25    1
    38    22    24    2
    39    26    27   ar
    40    26    24    1
    41    27    34    1
    42    24    35    1
