@<TRIPOS>MOLECULE
2,3,4,5,6,7,8,13,14,15
 43 46 0 0 0
SMALL
GASTEIGER

@<TRIPOS>ATOM
      1 SI         -3.2704    3.8743    2.7594 Si      1  UNL1        0.0000
      2 C          -2.5589    2.6202    1.5324 C.3     1  UNL1        0.0000
      3 C          -1.5903    2.9315    0.5255 C.2     1  UNL1        0.0000
      4 C          -1.0426    1.7174    0.0489 C.2     1  UNL1        0.0000
      5 C          -1.6033    0.6633    0.7897 C.2     1  UNL1        0.0000
      6 C          -2.5130    1.2122    1.7162 C.2     1  UNL1        0.0000
      7 C          -1.6061    4.0765    3.6303 C.2     1  UNL1        0.0000
      8 C          -0.4463    4.6880    3.0452 C.ar    1  UNL1        0.0000
      9 C          -0.2984    5.6834    2.0606 C.ar    1  UNL1        0.0000
     10 C           0.9557    6.1620    1.7725 C.ar    1  UNL1        0.0000
     11 C           2.0896    5.6969    2.4579 C.ar    1  UNL1        0.0000
     12 C           1.9917    4.7283    3.4248 C.ar    1  UNL1        0.0000
     13 C           0.7292    4.1810    3.7174 C.ar    1  UNL1        0.0000
     14 C           0.2887    3.2131    4.6848 C.2     1  UNL1        0.0000
     15 C          -1.1277    3.1758    4.6177 C.3     1  UNL1        0.0000
     16 C          -4.5511    3.0753    3.9154 C.3     1  UNL1        0.0000
     17 C          -3.9573    5.4462    1.9384 C.3     1  UNL1        0.0000
     18 C           2.7374    0.9558    7.3245 C.ar    1  UNL1        0.0000
     19 C           1.5501    1.5033    7.7806 C.ar    1  UNL1        0.0000
     20 C           0.7517    2.2421    6.9282 C.ar    1  UNL1        0.0000
     21 C           1.1326    2.4458    5.6023 C.ar    1  UNL1        0.0000
     22 C           2.3274    1.8823    5.1482 C.ar    1  UNL1        0.0000
     23 C           3.1206    1.1453    6.0064 C.ar    1  UNL1        0.0000
     24 H          -1.1706    6.0963    1.5742 H       1  UNL1        0.0000
     25 H           1.0769    6.9278    1.0212 H       1  UNL1        0.0000
     26 H           3.0526    6.1227    2.2226 H       1  UNL1        0.0000
     27 H           2.8649    4.4028    3.9708 H       1  UNL1        0.0000
     28 H          -1.7545    2.6041    5.2921 H       1  UNL1        0.0000
     29 H          -5.4528    2.8251    3.3671 H       1  UNL1        0.0000
     30 H          -4.1807    2.1645    4.3744 H       1  UNL1        0.0000
     31 H          -4.8305    3.7585    4.7102 H       1  UNL1        0.0000
     32 H          -5.0181    5.3306    1.7442 H       1  UNL1        0.0000
     33 H          -3.8335    6.3098    2.5833 H       1  UNL1        0.0000
     34 H          -3.4765    5.6625    0.9905 H       1  UNL1        0.0000
     35 H           3.3586    0.3772    7.9916 H       1  UNL1        0.0000
     36 H           1.2445    1.3538    8.8059 H       1  UNL1        0.0000
     37 H          -0.1686    2.6774    7.2899 H       1  UNL1        0.0000
     38 H           2.6151    1.9964    4.1106 H       1  UNL1        0.0000
     39 H           4.0381    0.7069    5.6425 H       1  UNL1        0.0000
     40 H          -1.4626    3.8968    0.0526 H       1  UNL1        0.0000
     41 H          -0.3796    1.6133   -0.7981 H       1  UNL1        0.0000
     42 H          -1.4312   -0.3893    0.6214 H       1  UNL1        0.0000
     43 H          -3.1730    0.6425    2.3560 H       1  UNL1        0.0000
@<TRIPOS>BOND
     1    41     4    1
     2     4     3    2
     3     4     5    1
     4    40     3    1
     5     3     2    1
     6    42     5    1
     7     5     6    2
     8    34    17    1
     9    25    10    1
    10     2     6    1
    11     2     1    1
    12    24     9    1
    13     6    43    1
    14    32    17    1
    15    10     9   ar
    16    10    11   ar
    17    17    33    1
    18    17     1    1
    19     9     8   ar
    20    26    11    1
    21    11    12   ar
    22     1     7    1
    23     1    16    1
    24     8     7    2
    25     8    13   ar
    26    29    16    1
    27    12    13   ar
    28    12    27    1
    29     7    15    1
    30    13    14    2
    31    16    30    1
    32    16    31    1
    33    38    22    1
    34    15    14    1
    35    15    28    1
    36    14    21    1
    37    22    21   ar
    38    22    23   ar
    39    21    20   ar
    40    39    23    1
    41    23    18   ar
    42    20    37    1
    43    20    19   ar
    44    18    19   ar
    45    18    35    1
    46    19    36    1
