@<TRIPOS>MOLECULE
3,4,5,6,7,8,9,10,11,12
 34 36 0 0 0
SMALL
GASTEIGER

@<TRIPOS>ATOM
      1 SI         -0.9452    7.4783    4.9839 Si      1  UNL1        0.0000
      2 SI          1.7438    5.8765    6.3770 Si      1  UNL1        0.0000
      3 C           2.4668    9.7557    5.2151 C.2     1  UNL1        0.0000
      4 C           2.8749    8.5904    5.8881 C.3     1  UNL1        0.0000
      5 C           1.7555    7.7448    6.0564 C.2     1  UNL1        0.0000
      6 C           0.6270    8.4093    5.4618 C.2     1  UNL1        0.0000
      7 C           1.0920    9.6382    4.9352 C.2     1  UNL1        0.0000
      8 C           1.1150    5.4549    4.6372 C.2     1  UNL1        0.0000
      9 C           0.0008    6.1432    4.0441 C.3     1  UNL1        0.0000
     10 C           0.0965    5.9740    2.6423 C.2     1  UNL1        0.0000
     11 C           1.2242    5.1779    2.3630 C.2     1  UNL1        0.0000
     12 C           1.8541    4.8722    3.5825 C.2     1  UNL1        0.0000
     13 C          -1.9381    8.5430    3.7464 C.3     1  UNL1        0.0000
     14 C          -2.1270    6.8982    6.3678 C.3     1  UNL1        0.0000
     15 C           0.6273    5.3350    7.8342 C.3     1  UNL1        0.0000
     16 C           3.4895    5.1684    6.6849 C.3     1  UNL1        0.0000
     17 H           3.0654   10.6448    5.0731 H       1  UNL1        0.0000
     18 H           3.8640    8.4113    6.2919 H       1  UNL1        0.0000
     19 H           0.4682   10.4184    4.5173 H       1  UNL1        0.0000
     20 H          -0.6487    6.2836    1.9196 H       1  UNL1        0.0000
     21 H           1.4711    4.7503    1.4013 H       1  UNL1        0.0000
     22 H           2.7118    4.2210    3.7000 H       1  UNL1        0.0000
     23 H          -1.2996    8.8802    2.9355 H       1  UNL1        0.0000
     24 H          -2.3614    9.4141    4.2343 H       1  UNL1        0.0000
     25 H          -2.7609    7.9785    3.3215 H       1  UNL1        0.0000
     26 H          -1.9167    5.8838    6.6824 H       1  UNL1        0.0000
     27 H          -3.1523    6.9289    6.0153 H       1  UNL1        0.0000
     28 H          -2.0604    7.5415    7.2383 H       1  UNL1        0.0000
     29 H          -0.0256    6.1326    8.1652 H       1  UNL1        0.0000
     30 H           1.2418    5.0423    8.6780 H       1  UNL1        0.0000
     31 H           0.0129    4.4824    7.5681 H       1  UNL1        0.0000
     32 H           4.1835    5.4410    5.8962 H       1  UNL1        0.0000
     33 H           3.4561    4.0854    6.7465 H       1  UNL1        0.0000
     34 H           3.8887    5.5348    7.6252 H       1  UNL1        0.0000
@<TRIPOS>BOND
     1    21    11    1
     2    20    10    1
     3    11    10    2
     4    11    12    1
     5    10     9    1
     6    23    13    1
     7    25    13    1
     8    12    22    1
     9    12     8    2
    10    13    24    1
    11    13     1    1
    12     9     8    1
    13     9     1    1
    14    19     7    1
    15     8     2    1
    16     7     3    2
    17     7     6    1
    18     1     6    1
    19     1    14    1
    20    17     3    1
    21     3     4    1
    22     6     5    2
    23     4     5    1
    24     4    18    1
    25    32    16    1
    26    27    14    1
    27     5     2    1
    28    14    26    1
    29    14    28    1
    30     2    16    1
    31     2    15    1
    32    16    33    1
    33    16    34    1
    34    31    15    1
    35    15    29    1
    36    15    30    1
