@<TRIPOS>MOLECULE
2,3,4,5,6,9,10,11,12,13
 40 41 0 0 0
SMALL
GASTEIGER

@<TRIPOS>ATOM
      1 SI         -0.3438    2.7224   -0.2554 Si      1  UNL1        0.0000
      2 C           0.3149    1.5675    1.0907 C.3     1  UNL1        0.0000
      3 C           1.6488    1.0944    1.2392 C.3     1  UNL1        0.0000
      4 C           1.8333    0.7013    2.5878 C.3     1  UNL1        0.0000
      5 C           0.6367    0.9559    3.3002 C.2     1  UNL1        0.0000
      6 C          -0.2827    1.5250    2.3916 C.2     1  UNL1        0.0000
      7 C           2.7047    0.9842    0.1731 C.3     1  UNL1        0.0000
      8 C           0.3708    0.5847    4.7295 C.3     1  UNL1        0.0000
      9 C           0.4537    4.2446    0.5389 C.3     1  UNL1        0.0000
     10 C          -0.0018    4.9219    1.7057 C.3     1  UNL1        0.0000
     11 C           1.0850    5.6524    2.2461 C.3     1  UNL1        0.0000
     12 C           2.2320    5.4089    1.4535 C.2     1  UNL1        0.0000
     13 C           1.8555    4.5137    0.4281 C.2     1  UNL1        0.0000
     14 C          -1.3916    4.9163    2.2820 C.3     1  UNL1        0.0000
     15 C           3.5704    6.0658    1.6225 C.3     1  UNL1        0.0000
     16 C           0.2553    2.4452   -2.0456 C.3     1  UNL1        0.0000
     17 C          -2.2399    2.6936   -0.2500 C.2     1  UNL1        0.0000
     18 C          -2.9888    3.4846   -1.0026 C.2     1  UNL1        0.0000
     19 H           2.7110    0.2029    2.9850 H       1  UNL1        0.0000
     20 H          -1.3228    1.7386    2.6140 H       1  UNL1        0.0000
     21 H           2.2767    1.1288   -0.8154 H       1  UNL1        0.0000
     22 H           3.4966    1.7249    0.3364 H       1  UNL1        0.0000
     23 H           3.1691   -0.0023    0.2038 H       1  UNL1        0.0000
     24 H           0.0965   -0.4703    4.8007 H       1  UNL1        0.0000
     25 H          -0.4449    1.1806    5.1378 H       1  UNL1        0.0000
     26 H           1.2593    0.7461    5.3414 H       1  UNL1        0.0000
     27 H           1.0260    6.3508    3.0739 H       1  UNL1        0.0000
     28 H           2.4908    4.2166   -0.3995 H       1  UNL1        0.0000
     29 H          -1.3814    4.5066    3.2986 H       1  UNL1        0.0000
     30 H          -1.7822    5.9335    2.3413 H       1  UNL1        0.0000
     31 H          -2.0672    4.3290    1.6621 H       1  UNL1        0.0000
     32 H           3.5663    7.0562    1.1617 H       1  UNL1        0.0000
     33 H           3.8100    6.1845    2.6800 H       1  UNL1        0.0000
     34 H           4.3540    5.4717    1.1535 H       1  UNL1        0.0000
     35 H          -0.3745    3.0055   -2.7276 H       1  UNL1        0.0000
     36 H           1.2778    2.7700   -2.2039 H       1  UNL1        0.0000
     37 H           0.1827    1.3993   -2.3241 H       1  UNL1        0.0000
     38 H          -2.7365    1.9643    0.3776 H       1  UNL1        0.0000
     39 H          -2.5521    4.2284   -1.6483 H       1  UNL1        0.0000
     40 H          -4.0669    3.4349   -1.0063 H       1  UNL1        0.0000
@<TRIPOS>BOND
     1    35    16    1
     2    37    16    1
     3    36    16    1
     4    16     1    1
     5    39    18    1
     6    40    18    1
     7    18    17    2
     8    21     7    1
     9    28    13    1
    10     1    17    1
    11     1     9    1
    12     1     2    1
    13    17    38    1
    14     7    23    1
    15     7    22    1
    16     7     3    1
    17    13     9    1
    18    13    12    2
    19     9    10    1
    20     2     3    1
    21     2     6    1
    22    34    15    1
    23    32    15    1
    24     3     4    1
    25    12    15    1
    26    12    11    1
    27    15    33    1
    28    31    14    1
    29    10    11    1
    30    10    14    1
    31    11    27    1
    32    14    30    1
    33    14    29    1
    34     6    20    1
    35     6     5    2
    36     4    19    1
    37     4     5    1
    38     5     8    1
    39     8    24    1
    40     8    25    1
    41     8    26    1
