@<TRIPOS>MOLECULE
7,8,9,10,11,29,30,31,32
 48 49 0 0 0
SMALL
GASTEIGER

@<TRIPOS>ATOM
      1 SI          5.5786    0.0210    0.0476 Si      1  UNL1        0.0000
      2 H           4.4608   -0.7458   -0.5516 H       1  UNL1        0.0000
      3 C           6.7406   -1.3479    0.6796 C.3     1  UNL1        0.0000
      4 H           7.6360   -1.0045    1.1829 H       1  UNL1        0.0000
      5 H           7.0531   -1.9662   -0.1547 H       1  UNL1        0.0000
      6 H           6.2011   -1.9829    1.3735 H       1  UNL1        0.0000
      7 C           6.2664    1.2939   -1.1704 C.3     1  UNL1        0.0000
      8 C           5.4271    2.0432   -2.0623 C.2     1  UNL1        0.0000
      9 C           6.1166    3.2184   -2.4525 C.2     1  UNL1        0.0000
     10 C           7.3672    3.2387   -1.7824 C.2     1  UNL1        0.0000
     11 C           7.4541    2.0756   -0.9773 C.2     1  UNL1        0.0000
     12 C           4.1251    1.6129   -2.6795 C.3     1  UNL1        0.0000
     13 H           3.7958    0.6560   -2.2849 H       1  UNL1        0.0000
     14 H           4.2458    1.5056   -3.7595 H       1  UNL1        0.0000
     15 H           3.3459    2.3603   -2.5081 H       1  UNL1        0.0000
     16 C           5.6777    4.2064   -3.4941 C.3     1  UNL1        0.0000
     17 H           5.9349    5.2238   -3.1957 H       1  UNL1        0.0000
     18 H           4.6015    4.1595   -3.6485 H       1  UNL1        0.0000
     19 H           6.1739    3.9980   -4.4450 H       1  UNL1        0.0000
     20 C           8.4547    4.2488   -2.0068 C.3     1  UNL1        0.0000
     21 H           9.1544    4.2630   -1.1729 H       1  UNL1        0.0000
     22 H           8.0360    5.2501   -2.1178 H       1  UNL1        0.0000
     23 H           9.0083    4.0115   -2.9188 H       1  UNL1        0.0000
     24 C           8.6984    1.6881   -0.2276 C.3     1  UNL1        0.0000
     25 H           9.5320    1.5794   -0.9250 H       1  UNL1        0.0000
     26 H           8.5712    0.7407    0.2869 H       1  UNL1        0.0000
     27 H           8.9740    2.4593    0.4967 H       1  UNL1        0.0000
     28 C           4.9449    1.3092    1.2790 C.3     1  UNL1        0.0000
     29 C           5.7623    2.0989    2.1553 C.3     1  UNL1        0.0000
     30 C           5.0463    3.2689    2.5114 C.2     1  UNL1        0.0000
     31 C           3.7982    3.2441    1.8365 C.2     1  UNL1        0.0000
     32 C           3.7407    2.0598    1.0604 C.3     1  UNL1        0.0000
     33 C           7.0741    1.7165    2.7829 C.3     1  UNL1        0.0000
     34 H           7.8401    2.4692    2.5777 H       1  UNL1        0.0000
     35 H           7.4151    0.7497    2.4260 H       1  UNL1        0.0000
     36 H           6.9605    1.6500    3.8670 H       1  UNL1        0.0000
     37 C           5.4603    4.2920    3.5286 C.3     1  UNL1        0.0000
     38 H           4.9876    4.0805    4.4910 H       1  UNL1        0.0000
     39 H           5.1565    5.2923    3.2170 H       1  UNL1        0.0000
     40 H           6.5399    4.2921    3.6670 H       1  UNL1        0.0000
     41 C           2.6900    4.2375    2.0316 C.3     1  UNL1        0.0000
     42 H           2.1631    4.0365    2.9675 H       1  UNL1        0.0000
     43 H           1.9729    4.1889    1.2145 H       1  UNL1        0.0000
     44 H           3.0845    5.2535    2.0787 H       1  UNL1        0.0000
     45 C           2.5064    1.6232    0.3209 C.3     1  UNL1        0.0000
     46 H           2.6519    0.6610   -0.1614 H       1  UNL1        0.0000
     47 H           2.2193    2.3629   -0.4309 H       1  UNL1        0.0000
     48 H           1.6730    1.5244    1.0197 H       1  UNL1        0.0000
@<TRIPOS>BOND
     1    19    16    1
     2    14    12    1
     3    18    16    1
     4    16    17    1
     5    16     9    1
     6    23    20    1
     7    12    15    1
     8    12    13    1
     9    12     8    1
    10     9     8    2
    11     9    10    1
    12    22    20    1
    13     8     7    1
    14    20    10    1
    15    20    21    1
    16    10    11    2
    17     7    11    1
    18     7     1    1
    19    11    24    1
    20    25    24    1
    21     2     1    1
    22    47    45    1
    23    24    26    1
    24    24    27    1
    25    46    45    1
    26     5     3    1
    27     1     3    1
    28     1    28    1
    29    45    48    1
    30    45    32    1
    31     3     4    1
    32     3     6    1
    33    32    28    1
    34    32    31    1
    35    43    41    1
    36    28    29    1
    37    31    41    1
    38    31    30    2
    39    41    44    1
    40    41    42    1
    41    29    30    1
    42    29    33    1
    43    35    33    1
    44    30    37    1
    45    34    33    1
    46    33    36    1
    47    39    37    1
    48    37    40    1
    49    37    38    1
