@<TRIPOS>MOLECULE
4,5,6,7,12,14,15,16,17,21
 45 48 0 0 0
SMALL
GASTEIGER

@<TRIPOS>ATOM
      1 SI          3.5212    3.7931   -3.8650 Si      1  UNL1        0.0000
      2 C           2.8922    4.2235   -5.6192 C.3     1  UNL1        0.0000
      3 C           5.4101    3.9914   -4.0900 C.3     1  UNL1        0.0000
      4 C           2.9242    2.1221   -3.1827 C.3     1  UNL1        0.0000
      5 C           3.5041    1.3916   -2.0942 C.2     1  UNL1        0.0000
      6 C           1.3377    0.6558   -2.2690 C.ar    1  UNL1        0.0000
      7 C           2.5517    0.5163   -1.5409 C.2     1  UNL1        0.0000
      8 C           0.1028   -0.0096   -2.1785 C.ar    1  UNL1        0.0000
      9 C          -0.8973    0.3260   -3.0561 C.ar    1  UNL1        0.0000
     10 C          -0.6929    1.2991   -4.0471 C.ar    1  UNL1        0.0000
     11 C           0.5071    1.9580   -4.1752 C.ar    1  UNL1        0.0000
     12 C           1.5559    1.6662   -3.2822 C.ar    1  UNL1        0.0000
     13 C           4.9232    1.4536   -1.6025 C.3     1  UNL1        0.0000
     14 C           2.7731    4.7931   -2.4315 C.3     1  UNL1        0.0000
     15 C           1.3883    5.1178   -2.2521 C.2     1  UNL1        0.0000
     16 C           1.1299    5.3901   -0.8964 C.2     1  UNL1        0.0000
     17 C           2.3469    5.2571   -0.1721 C.ar    1  UNL1        0.0000
     18 C           2.6667    5.4703    1.1801 C.ar    1  UNL1        0.0000
     19 C           3.9632    5.2896    1.5913 C.ar    1  UNL1        0.0000
     20 C           4.9656    4.9204    0.6805 C.ar    1  UNL1        0.0000
     21 C           3.3718    4.8690   -1.1178 C.ar    1  UNL1        0.0000
     22 C           4.6919    4.7185   -0.6517 C.ar    1  UNL1        0.0000
     23 C           0.3288    5.2331   -3.3122 C.3     1  UNL1        0.0000
     24 H           1.8167    4.2232   -5.7373 H       1  UNL1        0.0000
     25 H           3.2524    5.2064   -5.9055 H       1  UNL1        0.0000
     26 H           3.2959    3.5105   -6.3307 H       1  UNL1        0.0000
     27 H           6.0068    3.7455   -3.2216 H       1  UNL1        0.0000
     28 H           5.7485    3.3632   -4.9078 H       1  UNL1        0.0000
     29 H           5.6347    5.0191   -4.3566 H       1  UNL1        0.0000
     30 H           5.2426    0.4615   -1.2837 H       1  UNL1        0.0000
     31 H           5.5957    1.7927   -2.3857 H       1  UNL1        0.0000
     32 H           5.0057    2.1192   -0.7366 H       1  UNL1        0.0000
     33 H          -0.3469    6.0519   -3.0650 H       1  UNL1        0.0000
     34 H           0.7671    5.4353   -4.2857 H       1  UNL1        0.0000
     35 H          -0.2700    4.3174   -3.3639 H       1  UNL1        0.0000
     36 H           2.7457   -0.2187   -0.7689 H       1  UNL1        0.0000
     37 H          -0.0446   -0.7751   -1.4285 H       1  UNL1        0.0000
     38 H          -1.8545   -0.1690   -2.9987 H       1  UNL1        0.0000
     39 H          -1.4976    1.5208   -4.7326 H       1  UNL1        0.0000
     40 H           0.6571    2.6520   -4.9892 H       1  UNL1        0.0000
     41 H           0.1908    5.7514   -0.4947 H       1  UNL1        0.0000
     42 H           1.8967    5.7769    1.8753 H       1  UNL1        0.0000
     43 H           4.2278    5.4433    2.6262 H       1  UNL1        0.0000
     44 H           5.9783    4.8076    1.0387 H       1  UNL1        0.0000
     45 H           5.4951    4.5009   -1.3404 H       1  UNL1        0.0000
@<TRIPOS>BOND
     1    26     2    1
     2    25     2    1
     3    24     2    1
     4     2     1    1
     5    40    11    1
     6    28     3    1
     7    39    10    1
     8    29     3    1
     9    34    23    1
    10    11    10   ar
    11    11    12   ar
    12     3     1    1
    13     3    27    1
    14    10     9   ar
    15     1     4    1
    16     1    14    1
    17    35    23    1
    18    23    33    1
    19    23    15    1
    20    12     4    1
    21    12     6   ar
    22     4     5    1
    23     9    38    1
    24     9     8   ar
    25    14    15    1
    26    14    21    1
    27    31    13    1
    28     6     8   ar
    29     6     7    1
    30    15    16    2
    31     8    37    1
    32     5    13    1
    33     5     7    2
    34    13    30    1
    35    13    32    1
    36     7    36    1
    37    45    22    1
    38    21    22   ar
    39    21    17   ar
    40    16    41    1
    41    16    17    1
    42    22    20   ar
    43    17    18   ar
    44    20    44    1
    45    20    19   ar
    46    18    19   ar
    47    18    42    1
    48    19    43    1
