@<TRIPOS>MOLECULE
2,3,4,5,6,7,8,9,10,13
 64 66 0 0 0
SMALL
GASTEIGER

@<TRIPOS>ATOM
      1 SI          2.1555    2.5805   12.6573 Si      1  UNL1        0.0000
      2 C           0.6125    1.7799   11.9131 C.3     1  UNL1        0.0000
      3 C           1.6908    4.2855   11.9665 C.3     1  UNL1        0.0000
      4 C          -0.8830    1.2530   10.2184 C.3     1  UNL1        0.0000
      5 C           1.0804    5.7964   10.3213 C.2     1  UNL1        0.0000
      6 C          -1.6201    1.6159   11.3708 C.2     1  UNL1        0.0000
      7 C           0.5969    5.0782   12.4489 C.3     1  UNL1        0.0000
      8 C           0.4928    1.3890   10.5504 C.3     1  UNL1        0.0000
      9 C           1.9505    4.7198   10.6263 C.3     1  UNL1        0.0000
     10 C          -0.7111    1.9728   12.3909 C.2     1  UNL1        0.0000
     11 C          -2.7869    0.7201    8.4808 C.3     1  UNL1        0.0000
     12 C          -0.8114   -0.8226    8.9287 C.ar    1  UNL1        0.0000
     13 C           0.2541    6.0263   11.4543 C.2     1  UNL1        0.0000
     14 C           2.2580    2.4664   14.5630 C.3     1  UNL1        0.0000
     15 C          -0.9786   -1.6166   10.0576 C.ar    1  UNL1        0.0000
     16 C           3.7411    1.7657   11.9774 C.3     1  UNL1        0.0000
     17 C          -1.2931    0.6153    8.9059 C.3     1  UNL1        0.0000
     18 C           3.0243    4.1888    9.7162 C.3     1  UNL1        0.0000
     19 C          -0.0516    5.0354   13.8060 C.3     1  UNL1        0.0000
     20 C          -0.6993    7.1747   11.6123 C.3     1  UNL1        0.0000
     21 C          -0.1742   -1.3691    7.8214 C.ar    1  UNL1        0.0000
     22 C          -3.2569    2.1752    8.5744 C.3     1  UNL1        0.0000
     23 C           1.0639    6.6383    9.0772 C.3     1  UNL1        0.0000
     24 C          -0.5463   -2.9302   10.0678 C.ar    1  UNL1        0.0000
     25 C           0.2581   -2.6839    7.8292 C.ar    1  UNL1        0.0000
     26 C           0.0679   -3.4712    8.9512 C.ar    1  UNL1        0.0000
     27 C          -2.8903    0.2867    7.0125 C.3     1  UNL1        0.0000
     28 C          -3.7068   -0.1837    9.3048 C.3     1  UNL1        0.0000
     29 H          -0.7275    1.1310    8.1160 H       1  UNL1        0.0000
     30 H          -0.6876   -3.5344   10.9524 H       1  UNL1        0.0000
     31 H          -0.9887    2.1947   13.4148 H       1  UNL1        0.0000
     32 H          -1.4426   -1.2000   10.9388 H       1  UNL1        0.0000
     33 H          -3.6367    0.0253   10.3671 H       1  UNL1        0.0000
     34 H          -0.0095   -0.7590    6.9446 H       1  UNL1        0.0000
     35 H           1.3103    1.0707    9.9109 H       1  UNL1        0.0000
     36 H          -2.5528   -0.7389    6.8836 H       1  UNL1        0.0000
     37 H           0.0377    6.8042    8.7410 H       1  UNL1        0.0000
     38 H          -3.3917    2.4971    9.6039 H       1  UNL1        0.0000
     39 H          -4.2143    2.2847    8.0680 H       1  UNL1        0.0000
     40 H           3.3393    4.9595    9.0142 H       1  UNL1        0.0000
     41 H          -3.4592   -1.2307    9.1461 H       1  UNL1        0.0000
     42 H           3.8945    3.8838   10.2924 H       1  UNL1        0.0000
     43 H           1.5167    7.6133    9.2713 H       1  UNL1        0.0000
     44 H           3.8804    0.8011   12.4544 H       1  UNL1        0.0000
     45 H           0.0959    5.9844   14.3257 H       1  UNL1        0.0000
     46 H           2.6679    3.3323    9.1320 H       1  UNL1        0.0000
     47 H           0.4039   -4.4978    8.9583 H       1  UNL1        0.0000
     48 H           3.7080    1.5967   10.9077 H       1  UNL1        0.0000
     49 H          -1.4508    6.9600   12.3701 H       1  UNL1        0.0000
     50 H           4.6173    2.3654   12.1990 H       1  UNL1        0.0000
     51 H          -2.5442    2.8434    8.0911 H       1  UNL1        0.0000
     52 H          -2.2902    0.9356    6.3783 H       1  UNL1        0.0000
     53 H          -3.9237    0.3473    6.6781 H       1  UNL1        0.0000
     54 H          -4.7389   -0.0277    8.9972 H       1  UNL1        0.0000
     55 H           1.2998    2.2450   15.0206 H       1  UNL1        0.0000
     56 H          -2.6904    1.5545   11.5127 H       1  UNL1        0.0000
     57 H          -1.1315    4.8752   13.7094 H       1  UNL1        0.0000
     58 H          -1.2122    7.3882   10.6743 H       1  UNL1        0.0000
     59 H           2.6369    3.3845   14.9992 H       1  UNL1        0.0000
     60 H           0.7479   -3.0932    6.9573 H       1  UNL1        0.0000
     61 H           0.3702    4.2472   14.4219 H       1  UNL1        0.0000
     62 H           2.9378    1.6697   14.8440 H       1  UNL1        0.0000
     63 H          -0.1553    8.0739   11.9116 H       1  UNL1        0.0000
     64 H           1.6081    6.1572    8.2669 H       1  UNL1        0.0000
@<TRIPOS>BOND
     1    52    27    1
     2    53    27    1
     3    36    27    1
     4    34    21    1
     5    60    25    1
     6    27    11    1
     7    21    25   ar
     8    21    12   ar
     9    25    26   ar
    10    39    22    1
    11    51    22    1
    12    29    17    1
    13    64    23    1
    14    11    22    1
    15    11    17    1
    16    11    28    1
    17    22    38    1
    18    37    23    1
    19    17    12    1
    20    17     4    1
    21    12    15   ar
    22    26    47    1
    23    26    24   ar
    24    54    28    1
    25    40    18    1
    26    23    43    1
    27    23     5    1
    28    46    18    1
    29    41    28    1
    30    28    33    1
    31    18    42    1
    32    18     9    1
    33    35     8    1
    34    15    24   ar
    35    15    32    1
    36    24    30    1
    37     4     8    1
    38     4     6    1
    39     5     9    1
    40     5    13    2
    41     8     2    1
    42     9     3    1
    43    58    20    1
    44    48    16    1
    45     6    56    1
    46     6    10    2
    47    13    20    1
    48    13     7    1
    49    20    63    1
    50    20    49    1
    51     2    10    1
    52     2     1    1
    53     3     7    1
    54     3     1    1
    55    16    50    1
    56    16    44    1
    57    16     1    1
    58    10    31    1
    59     7    19    1
    60     1    14    1
    61    57    19    1
    62    19    45    1
    63    19    61    1
    64    14    62    1
    65    14    59    1
    66    14    55    1
