@<TRIPOS>MOLECULE
2,3,4,5,6,31,32,34,35,37
 57 58 0 0 0
SMALL
GASTEIGER

@<TRIPOS>ATOM
      1 SI          8.6684    2.4269    1.7862 Si      1  UNL1        0.0000
      2 C           9.6901    4.0189    1.5844 C.3     1  UNL1        0.0000
      3 C          10.1856    4.7694    2.7054 C.2     1  UNL1        0.0000
      4 C          10.3088    6.1286    2.3223 C.2     1  UNL1        0.0000
      5 C           9.8751    6.2423    0.9660 C.3     1  UNL1        0.0000
      6 C           9.5136    4.9490    0.5112 C.3     1  UNL1        0.0000
      7 C          10.7811    4.1993    3.9650 C.3     1  UNL1        0.0000
      8 H          11.8702    4.2767    3.9184 H       1  UNL1        0.0000
      9 H          10.5320    3.1481    4.0744 H       1  UNL1        0.0000
     10 H          10.4544    4.7409    4.8551 H       1  UNL1        0.0000
     11 C          10.9473    7.2332    3.1177 C.3     1  UNL1        0.0000
     12 H          11.9206    7.4870    2.6920 H       1  UNL1        0.0000
     13 H          11.0977    6.9344    4.1540 H       1  UNL1        0.0000
     14 H          10.3307    8.1338    3.1032 H       1  UNL1        0.0000
     15 C           9.8558    7.5171    0.1704 C.3     1  UNL1        0.0000
     16 H          10.8634    7.7953   -0.1480 H       1  UNL1        0.0000
     17 H           9.4556    8.3342    0.7765 H       1  UNL1        0.0000
     18 H           9.2277    7.4081   -0.7132 H       1  UNL1        0.0000
     19 C           9.1861    4.5991   -0.9134 C.3     1  UNL1        0.0000
     20 H           9.7665    5.2266   -1.5892 H       1  UNL1        0.0000
     21 H           8.1290    4.7542   -1.1411 H       1  UNL1        0.0000
     22 H           9.4417    3.5614   -1.1114 H       1  UNL1        0.0000
     23 C           9.5607    1.0237    2.7301 C.3     1  UNL1        0.0000
     24 H           9.1586    0.0641    2.4257 H       1  UNL1        0.0000
     25 H           9.4337    1.0979    3.8047 H       1  UNL1        0.0000
     26 H          10.6241    1.0142    2.5168 H       1  UNL1        0.0000
     27 C           7.9214    1.7018    0.1895 C.3     1  UNL1        0.0000
     28 H           7.2556    0.8822    0.4405 H       1  UNL1        0.0000
     29 H           8.6891    1.3043   -0.4648 H       1  UNL1        0.0000
     30 H           7.3479    2.4362   -0.3661 H       1  UNL1        0.0000
     31 C           7.2910    3.2643    2.7827 C.3     1  UNL1        0.0000
     32 C           7.5483    3.9208    4.0222 C.3     1  UNL1        0.0000
     33 H           8.2807    3.5954    4.7469 H       1  UNL1        0.0000
     34 C           6.5523    4.8970    4.2518 C.2     1  UNL1        0.0000
     35 C           5.6782    4.8728    3.1329 C.2     1  UNL1        0.0000
     36 H           4.7771    5.4656    3.0158 H       1  UNL1        0.0000
     37 C           6.1311    3.8768    2.2396 C.3     1  UNL1        0.0000
     38 H           5.6256    3.5760    1.3291 H       1  UNL1        0.0000
     39 C           6.4292    5.7556    5.4872 C.3     1  UNL1        0.0000
     40 H           5.9352    6.6940    5.1991 H       1  UNL1        0.0000
     41 C           7.8302    6.1160    6.0043 C.3     1  UNL1        0.0000
     42 H           8.4511    6.4586    5.1684 H       1  UNL1        0.0000
     43 H           8.3111    5.2637    6.4791 H       1  UNL1        0.0000
     44 H           7.7726    6.9238    6.7285 H       1  UNL1        0.0000
     45 C           5.5254    5.0884    6.5672 C.3     1  UNL1        0.0000
     46 C           6.0314    3.6965    6.9513 C.3     1  UNL1        0.0000
     47 H           5.3620    3.2533    7.6852 H       1  UNL1        0.0000
     48 H           7.0241    3.7413    7.3919 H       1  UNL1        0.0000
     49 H           6.0618    3.0459    6.0811 H       1  UNL1        0.0000
     50 C           5.4680    5.9711    7.8175 C.3     1  UNL1        0.0000
     51 H           4.7173    5.5887    8.5060 H       1  UNL1        0.0000
     52 H           5.1997    6.9921    7.5556 H       1  UNL1        0.0000
     53 H           6.4217    5.9837    8.3378 H       1  UNL1        0.0000
     54 C           4.1068    4.9500    6.0054 C.3     1  UNL1        0.0000
     55 H           3.4425    4.5363    6.7609 H       1  UNL1        0.0000
     56 H           4.0967    4.2860    5.1451 H       1  UNL1        0.0000
     57 H           3.7161    5.9193    5.7033 H       1  UNL1        0.0000
@<TRIPOS>BOND
     1    20    19    1
     2    21    19    1
     3    22    19    1
     4    19     6    1
     5    18    15    1
     6    29    27    1
     7    30    27    1
     8    16    15    1
     9    15    17    1
    10    15     5    1
    11    27    28    1
    12    27     1    1
    13     6     5    1
    14     6     2    1
    15     5     4    1
    16    38    37    1
    17     2     1    1
    18     2     3    1
    19     1    23    1
    20     1    31    1
    21    37    31    1
    22    37    35    1
    23     4     3    2
    24     4    11    1
    25    24    23    1
    26    26    23    1
    27    12    11    1
    28     3     7    1
    29    23    25    1
    30    31    32    1
    31    36    35    1
    32    14    11    1
    33    11    13    1
    34    35    34    2
    35     8     7    1
    36     7     9    1
    37     7    10    1
    38    32    34    1
    39    32    33    1
    40    34    39    1
    41    56    54    1
    42    42    41    1
    43    40    39    1
    44    39    41    1
    45    39    45    1
    46    57    54    1
    47    41    43    1
    48    41    44    1
    49    54    45    1
    50    54    55    1
    51    49    46    1
    52    45    46    1
    53    45    50    1
    54    46    48    1
    55    46    47    1
    56    52    50    1
    57    50    53    1
    58    50    51    1
