@<TRIPOS>MOLECULE
4,5,6,11,42,43,44,45,50
 79 88 0 0 0
SMALL
GASTEIGER

@<TRIPOS>ATOM
      1 SI         10.1402    7.5199    3.3484 Si      1  UNL1        0.0000
      2 N          10.9166    3.5158    6.6951 N.ar    1  UNL1        0.0000
      3 C           9.7405    6.2131    4.6669 C.3     1  UNL1        0.0000
      4 C          10.6890    5.4298    5.4200 C.ar    1  UNL1        0.0000
      5 C          10.0553    4.2442    5.8968 C.ar    1  UNL1        0.0000
      6 C           8.6872    4.2460    5.5145 C.ar    1  UNL1        0.0000
      7 C           7.5949    3.4081    5.7929 C.ar    1  UNL1        0.0000
      8 C           6.3807    3.6824    5.2142 C.ar    1  UNL1        0.0000
      9 C           6.2245    4.7795    4.3536 C.ar    1  UNL1        0.0000
     10 C           7.2569    5.6493    4.0998 C.ar    1  UNL1        0.0000
     11 C           8.5175    5.4416    4.6964 C.ar    1  UNL1        0.0000
     12 C          11.5565    8.7411    3.7505 C.3     1  UNL1        0.0000
     13 C          12.1218    4.1926    6.7135 C.ar    1  UNL1        0.0000
     14 C          12.0187    5.4056    5.9719 C.ar    1  UNL1        0.0000
     15 C          13.1033    6.2784    5.9461 C.ar    1  UNL1        0.0000
     16 C          14.2751    5.9144    6.5763 C.ar    1  UNL1        0.0000
     17 C          14.3883    4.6887    7.2284 C.ar    1  UNL1        0.0000
     18 C          13.3181    3.8209    7.3112 C.ar    1  UNL1        0.0000
     19 C          10.6566    2.2296    7.1908 C.ar    1  UNL1        0.0000
     20 C          10.0280    1.2912    6.3743 C.ar    1  UNL1        0.0000
     21 C           9.7578    0.0283    6.8671 C.ar    1  UNL1        0.0000
     22 C          10.1092   -0.3094    8.1645 C.ar    1  UNL1        0.0000
     23 C          10.7302    0.6254    8.9755 C.ar    1  UNL1        0.0000
     24 C          11.0007    1.8944    8.4967 C.ar    1  UNL1        0.0000
     25 H          11.4188    9.6429    3.1630 H       1  UNL1        0.0000
     26 H          11.5239    9.0282    4.7967 H       1  UNL1        0.0000
     27 H          12.5494    8.3733    3.5294 H       1  UNL1        0.0000
     28 H           7.7142    2.5616    6.4550 H       1  UNL1        0.0000
     29 H           5.5336    3.0448    5.4142 H       1  UNL1        0.0000
     30 H           5.2645    4.9476    3.8890 H       1  UNL1        0.0000
     31 H           7.0841    6.5066    3.4688 H       1  UNL1        0.0000
     32 H          13.0216    7.2339    5.4547 H       1  UNL1        0.0000
     33 H          15.1212    6.5849    6.5591 H       1  UNL1        0.0000
     34 H          15.3270    4.4173    7.6873 H       1  UNL1        0.0000
     35 H          13.4131    2.8730    7.8171 H       1  UNL1        0.0000
     36 H           9.7740    1.5475    5.3512 H       1  UNL1        0.0000
     37 H           9.2751   -0.6979    6.2306 H       1  UNL1        0.0000
     38 H           9.8982   -1.2982    8.5428 H       1  UNL1        0.0000
     39 H          10.9991    0.3693    9.9896 H       1  UNL1        0.0000
     40 H          11.4602    2.6338    9.1350 H       1  UNL1        0.0000
     41 N           9.3638    3.5158    0.0021 N.ar    1  UNL1        0.0000
     42 C          10.5400    6.2130    2.0301 C.3     1  UNL1        0.0000
     43 C           9.5914    5.4297    1.2770 C.ar    1  UNL1        0.0000
     44 C          10.2250    4.2440    0.8004 C.ar    1  UNL1        0.0000
     45 C          11.5932    4.2461    1.1825 C.ar    1  UNL1        0.0000
     46 C          12.6857    3.4085    0.9036 C.ar    1  UNL1        0.0000
     47 C          13.8999    3.6827    1.4825 C.ar    1  UNL1        0.0000
     48 C          14.0556    4.7789    2.3444 C.ar    1  UNL1        0.0000
     49 C          13.0231    5.6486    2.5984 C.ar    1  UNL1        0.0000
     50 C          11.7627    5.4411    2.0014 C.ar    1  UNL1        0.0000
     51 C           8.7240    8.7412    2.9464 C.3     1  UNL1        0.0000
     52 C           8.1586    4.1926   -0.0165 C.ar    1  UNL1        0.0000
     53 C           8.2617    5.4056    0.7251 C.ar    1  UNL1        0.0000
     54 C           7.1772    6.2784    0.7509 C.ar    1  UNL1        0.0000
     55 C           6.0054    5.9144    0.1206 C.ar    1  UNL1        0.0000
     56 C           5.8922    4.6889   -0.5317 C.ar    1  UNL1        0.0000
     57 C           6.9624    3.8210   -0.6145 C.ar    1  UNL1        0.0000
     58 C           9.6239    2.2297   -0.4938 C.ar    1  UNL1        0.0000
     59 C          10.2521    1.2911    0.3230 C.ar    1  UNL1        0.0000
     60 C          10.5223    0.0281   -0.1698 C.ar    1  UNL1        0.0000
     61 C          10.1715   -0.3094   -1.4674 C.ar    1  UNL1        0.0000
     62 C           9.5509    0.6256   -2.2786 C.ar    1  UNL1        0.0000
     63 C           9.2802    1.8945   -1.7997 C.ar    1  UNL1        0.0000
     64 H           8.8618    9.6430    3.5338 H       1  UNL1        0.0000
     65 H           8.7565    9.0281    1.9001 H       1  UNL1        0.0000
     66 H           7.7311    8.3734    3.1676 H       1  UNL1        0.0000
     67 H          12.5661    2.5611    0.2427 H       1  UNL1        0.0000
     68 H          14.7467    3.0445    1.2833 H       1  UNL1        0.0000
     69 H          15.0159    4.9475    2.8082 H       1  UNL1        0.0000
     70 H          13.1965    6.5066    3.2281 H       1  UNL1        0.0000
     71 H           7.2587    7.2338    1.2425 H       1  UNL1        0.0000
     72 H           5.1593    6.5849    0.1379 H       1  UNL1        0.0000
     73 H           4.9536    4.4174   -0.9907 H       1  UNL1        0.0000
     74 H           6.8675    2.8732   -1.1205 H       1  UNL1        0.0000
     75 H          10.5057    1.5474    1.3462 H       1  UNL1        0.0000
     76 H          11.0052   -0.6979    0.4667 H       1  UNL1        0.0000
     77 H          10.3825   -1.2982   -1.8457 H       1  UNL1        0.0000
     78 H           9.2818    0.3693   -3.2926 H       1  UNL1        0.0000
     79 H           8.8204    2.6338   -2.4381 H       1  UNL1        0.0000
@<TRIPOS>BOND
     1    78    62    1
     2    79    63    1
     3    62    63   ar
     4    62    61   ar
     5    77    61    1
     6    63    58   ar
     7    61    60   ar
     8    74    57    1
     9    73    56    1
    10    57    56   ar
    11    57    52   ar
    12    56    55   ar
    13    58    41    1
    14    58    59   ar
    15    60    59   ar
    16    60    76    1
    17    52    41   ar
    18    52    53   ar
    19    41    44   ar
    20    55    72    1
    21    55    54   ar
    22    67    46    1
    23    59    75    1
    24    53    54   ar
    25    53    43   ar
    26    54    71    1
    27    44    45    1
    28    44    43   ar
    29    46    45   ar
    30    46    47   ar
    31    45    50   ar
    32    43    42    1
    33    68    47    1
    34    47    48   ar
    35    65    51    1
    36    50    42    1
    37    50    49   ar
    38    42     1    1
    39    48    49   ar
    40    48    69    1
    41    49    70    1
    42    51    66    1
    43    51     1    1
    44    51    64    1
    45    25    12    1
    46     1    12    1
    47     1     3    1
    48    31    10    1
    49    27    12    1
    50    12    26    1
    51    30     9    1
    52    10     9   ar
    53    10    11   ar
    54     9     8   ar
    55     3    11    1
    56     3     4    1
    57    11     6   ar
    58     8    29    1
    59     8     7   ar
    60    36    20    1
    61     4     5   ar
    62     4    14   ar
    63    32    15    1
    64     6     7   ar
    65     6     5    1
    66     7    28    1
    67     5     2   ar
    68    15    14   ar
    69    15    16   ar
    70    14    13   ar
    71    37    21    1
    72    20    21   ar
    73    20    19   ar
    74    33    16    1
    75    16    17   ar
    76     2    13   ar
    77     2    19    1
    78    13    18   ar
    79    21    22   ar
    80    19    24   ar
    81    17    18   ar
    82    17    34    1
    83    18    35    1
    84    22    38    1
    85    22    23   ar
    86    24    23   ar
    87    24    40    1
    88    23    39    1
