@<TRIPOS>MOLECULE
14,15,18,19,22,23,24,27,28,31
 57 62 0 0 0
SMALL
GASTEIGER

@<TRIPOS>ATOM
      1 SI          5.8772    9.4554    3.6536 Si      1  UNL1        0.0000
      2 S           7.3459    6.8469    1.1711 S.2     1  UNL1        0.0000
      3 S           8.5746   12.1511    2.9298 S.3     1  UNL1        0.0000
      4 S           6.9667    5.8267    4.5233 S.2     1  UNL1        0.0000
      5 S           8.1998   11.1296    6.2856 S.2     1  UNL1        0.0000
      6 C           5.2686   11.2034    4.1212 C.3     1  UNL1        0.0000
      7 C           4.8022   12.0259    2.9238 C.3     1  UNL1        0.0000
      8 C           4.5529    8.1838    3.1310 C.3     1  UNL1        0.0000
      9 C           3.9682    8.4470    1.7466 C.3     1  UNL1        0.0000
     10 C           8.4651    3.5918    5.2833 C.3     1  UNL1        0.0000
     11 C          10.3463   11.7006    7.9829 C.3     1  UNL1        0.0000
     12 C           9.1030    5.3161   -0.3725 C.3     1  UNL1        0.0000
     13 C          10.9827   13.4317    2.3199 C.3     1  UNL1        0.0000
     14 C           7.2873    9.5407    2.3950 C.2     1  UNL1        0.0000
     15 C           7.8563    8.4318    1.6883 C.ar    1  UNL1        0.0000
     16 C           8.8671    6.6117    0.3152 C.ar    1  UNL1        0.0000
     17 C           9.7016    7.6764    0.4086 C.ar    1  UNL1        0.0000
     18 C           9.1640    8.7329    1.1961 C.ar    1  UNL1        0.0000
     19 C           9.4708   10.0575    1.6350 C.2     1  UNL1        0.0000
     20 C          10.4836   11.0518    1.5276 C.2     1  UNL1        0.0000
     21 C          10.1621   12.2024    2.1691 C.2     1  UNL1        0.0000
     22 C           8.3386   10.5141    2.3782 C.3     1  UNL1        0.0000
     23 C           6.9919    8.7475    5.0080 C.3     1  UNL1        0.0000
     24 C           7.4694    7.3994    5.0852 C.ar    1  UNL1        0.0000
     25 C           8.2907    5.0627    5.3990 C.ar    1  UNL1        0.0000
     26 C           9.0563    5.9477    6.0832 C.ar    1  UNL1        0.0000
     27 C           8.6259    7.2943    5.9189 C.ar    1  UNL1        0.0000
     28 C           8.9337    8.6176    6.3584 C.ar    1  UNL1        0.0000
     29 C           9.8402    9.3180    7.2030 C.ar    1  UNL1        0.0000
     30 C           9.5898   10.6493    7.2555 C.ar    1  UNL1        0.0000
     31 C           7.9533    9.4798    5.7763 C.ar    1  UNL1        0.0000
     32 H           6.0720   11.7450    4.6236 H       1  UNL1        0.0000
     33 H           4.4528   11.1225    4.8386 H       1  UNL1        0.0000
     34 H           3.9478   11.5589    2.4425 H       1  UNL1        0.0000
     35 H           4.5098   13.0244    3.2408 H       1  UNL1        0.0000
     36 H           5.5991   12.1212    2.1919 H       1  UNL1        0.0000
     37 H           3.7473    8.1802    3.8649 H       1  UNL1        0.0000
     38 H           4.9866    7.1827    3.1402 H       1  UNL1        0.0000
     39 H           3.2471    7.6751    1.4870 H       1  UNL1        0.0000
     40 H           3.4632    9.4078    1.7165 H       1  UNL1        0.0000
     41 H           4.7514    8.4471    0.9937 H       1  UNL1        0.0000
     42 H           7.5200    3.0757    5.4449 H       1  UNL1        0.0000
     43 H           8.8236    3.3357    4.2857 H       1  UNL1        0.0000
     44 H           9.1930    3.2442    6.0122 H       1  UNL1        0.0000
     45 H          10.8631   12.3481    7.2740 H       1  UNL1        0.0000
     46 H           9.6755   12.3197    8.5773 H       1  UNL1        0.0000
     47 H          11.0848   11.2433    8.6367 H       1  UNL1        0.0000
     48 H           9.2196    4.5186    0.3620 H       1  UNL1        0.0000
     49 H           8.2630    5.0601   -1.0167 H       1  UNL1        0.0000
     50 H          10.0091    5.3711   -0.9708 H       1  UNL1        0.0000
     51 H          11.8629   13.3730    1.6846 H       1  UNL1        0.0000
     52 H          10.4070   14.3172    2.0539 H       1  UNL1        0.0000
     53 H          11.3080   13.5397    3.3551 H       1  UNL1        0.0000
     54 H          10.6739    7.7049   -0.0540 H       1  UNL1        0.0000
     55 H          11.4160   10.9080    1.0081 H       1  UNL1        0.0000
     56 H           9.9081    5.6559    6.6741 H       1  UNL1        0.0000
     57 H          10.6510    8.8496    7.7351 H       1  UNL1        0.0000
@<TRIPOS>BOND
     1    49    12    1
     2    50    12    1
     3    12    16    1
     4    12    48    1
     5    54    17    1
     6    16    17   ar
     7    16     2   ar
     8    17    18   ar
     9    41     9    1
    10    55    20    1
    11     2    15   ar
    12    18    19    2
    13    18    15   ar
    14    39     9    1
    15    20    19    1
    16    20    21    2
    17    19    22    1
    18    51    13    1
    19    15    14    2
    20    40     9    1
    21     9     8    1
    22    52    13    1
    23    21    13    1
    24    21     3    1
    25    36     7    1
    26    13    53    1
    27    22    14    1
    28    22     3    1
    29    14     1    1
    30    34     7    1
    31     7    35    1
    32     7     6    1
    33     8    38    1
    34     8     1    1
    35     8    37    1
    36     1     6    1
    37     1    23    1
    38     6    32    1
    39     6    33    1
    40    43    10    1
    41     4    24   ar
    42     4    25   ar
    43    23    24    1
    44    23    31    1
    45    24    27   ar
    46    10    25    1
    47    10    42    1
    48    10    44    1
    49    25    26   ar
    50    31     5   ar
    51    31    28   ar
    52    27    26   ar
    53    27    28    1
    54    26    56    1
    55     5    30   ar
    56    28    29   ar
    57    29    30   ar
    58    29    57    1
    59    30    11    1
    60    45    11    1
    61    11    46    1
    62    11    47    1
