@<TRIPOS>MOLECULE
3,4,5,6,7,8,9,10,11,12
 34 36 0 0 0
SMALL
GASTEIGER

@<TRIPOS>ATOM
      1 SI          7.4029    1.5895    2.0262 Si      1  UNL1        0.0000
      2 SI          6.7993    1.4644    5.4766 Si      1  UNL1        0.0000
      3 C           6.1154    0.1849    4.2572 C.3     1  UNL1        0.0000
      4 C           6.3571    0.2378    2.8407 C.3     1  UNL1        0.0000
      5 C           5.3100   -0.4686    2.2098 C.3     1  UNL1        0.0000
      6 C           4.4274   -0.9502    3.1955 C.2     1  UNL1        0.0000
      7 C           4.9269   -0.5528    4.4506 C.2     1  UNL1        0.0000
      8 C           6.1086    2.8274    4.3586 C.3     1  UNL1        0.0000
      9 C           6.3621    2.8801    2.9442 C.3     1  UNL1        0.0000
     10 C           5.3176    3.6302    2.3605 C.3     1  UNL1        0.0000
     11 C           4.4263    4.0352    3.3726 C.2     1  UNL1        0.0000
     12 C           4.9173    3.5462    4.5985 C.2     1  UNL1        0.0000
     13 C           8.6732    1.4911    5.8189 C.3     1  UNL1        0.0000
     14 C           5.8018    1.3877    7.0992 C.3     1  UNL1        0.0000
     15 C           7.0157    1.6746    0.1616 C.3     1  UNL1        0.0000
     16 C           9.2815    1.5381    2.3396 C.3     1  UNL1        0.0000
     17 H           5.2342   -0.6693    1.1489 H       1  UNL1        0.0000
     18 H           3.5581   -1.5728    3.0239 H       1  UNL1        0.0000
     19 H           4.5043   -0.8297    5.4077 H       1  UNL1        0.0000
     20 H           5.2477    3.9100    1.3174 H       1  UNL1        0.0000
     21 H           3.5571    4.6676    3.2411 H       1  UNL1        0.0000
     22 H           4.4886    3.7498    5.5712 H       1  UNL1        0.0000
     23 H           8.8509    1.8237    6.8353 H       1  UNL1        0.0000
     24 H           9.1077    0.5028    5.7185 H       1  UNL1        0.0000
     25 H           9.2021    2.1633    5.1546 H       1  UNL1        0.0000
     26 H           6.0430    0.4931    7.6643 H       1  UNL1        0.0000
     27 H           6.0241    2.2406    7.7325 H       1  UNL1        0.0000
     28 H           4.7322    1.3846    6.9004 H       1  UNL1        0.0000
     29 H           7.4482    2.5630   -0.2874 H       1  UNL1        0.0000
     30 H           7.4260    0.8156   -0.3598 H       1  UNL1        0.0000
     31 H           5.9422    1.6947   -0.0138 H       1  UNL1        0.0000
     32 H           9.6670    2.5181    2.5975 H       1  UNL1        0.0000
     33 H           9.7902    1.2146    1.4385 H       1  UNL1        0.0000
     34 H           9.5461    0.8498    3.1328 H       1  UNL1        0.0000
@<TRIPOS>BOND
     1    30    15    1
     2    29    15    1
     3    31    15    1
     4    15     1    1
     5    17     5    1
     6    20    10    1
     7    33    16    1
     8     1    16    1
     9     1     4    1
    10     1     9    1
    11     5     4    1
    12     5     6    1
    13    16    32    1
    14    16    34    1
    15    10     9    1
    16    10    11    1
    17     4     3    1
    18     9     8    1
    19    18     6    1
    20     6     7    2
    21    21    11    1
    22    11    12    2
    23     3     7    1
    24     3     2    1
    25     8    12    1
    26     8     2    1
    27     7    19    1
    28    12    22    1
    29    25    13    1
    30     2    13    1
    31     2    14    1
    32    24    13    1
    33    13    23    1
    34    28    14    1
    35    14    26    1
    36    14    27    1
