@<TRIPOS>MOLECULE
3,4,5,6,7,8,9,10,11,12
 34 36 0 0 0
SMALL
GASTEIGER

@<TRIPOS>ATOM
      1 SI          3.3773    3.2374    7.5109 Si      1  UNL1        0.0000
      2 SI          4.0022    0.6733    9.7692 Si      1  UNL1        0.0000
      3 C           3.1686    3.4537    9.3853 C.3     1  UNL1        0.0000
      4 C           3.4214    2.3919   10.3216 C.3     1  UNL1        0.0000
      5 C           2.6366    2.6498   11.4747 C.2     1  UNL1        0.0000
      6 C           1.9116    3.8430   11.2727 C.2     1  UNL1        0.0000
      7 C           2.2353    4.3344    9.9905 C.3     1  UNL1        0.0000
      8 C           2.4194    1.6007    7.4783 C.3     1  UNL1        0.0000
      9 C           2.6828    0.5384    8.4112 C.3     1  UNL1        0.0000
     10 C           1.4938   -0.2276    8.5229 C.2     1  UNL1        0.0000
     11 C           0.5102    0.3343    7.6821 C.2     1  UNL1        0.0000
     12 C           1.0768    1.4577    7.0437 C.3     1  UNL1        0.0000
     13 C           3.5471   -0.5746   11.1406 C.3     1  UNL1        0.0000
     14 C           5.8316    0.5341    9.2465 C.3     1  UNL1        0.0000
     15 C           5.1506    3.1887    6.8140 C.3     1  UNL1        0.0000
     16 C           2.3057    4.5664    6.6561 C.3     1  UNL1        0.0000
     17 H           2.6613    2.0796   12.3963 H       1  UNL1        0.0000
     18 H           1.2983    4.3476   12.0108 H       1  UNL1        0.0000
     19 H           1.8980    5.2790    9.5795 H       1  UNL1        0.0000
     20 H           1.3844   -1.1478    9.0851 H       1  UNL1        0.0000
     21 H          -0.4697   -0.0842    7.4818 H       1  UNL1        0.0000
     22 H           0.5938    2.0520    6.2764 H       1  UNL1        0.0000
     23 H           5.7918    3.8973    7.3266 H       1  UNL1        0.0000
     24 H           5.1416    3.4547    5.7629 H       1  UNL1        0.0000
     25 H           5.5955    2.2052    6.9014 H       1  UNL1        0.0000
     26 H           2.7245    5.5578    6.7940 H       1  UNL1        0.0000
     27 H           2.2441    4.3913    5.5870 H       1  UNL1        0.0000
     28 H           1.2925    4.5675    7.0575 H       1  UNL1        0.0000
     29 H           2.5035   -0.4666   11.4350 H       1  UNL1        0.0000
     30 H           4.1626   -0.4284   12.0222 H       1  UNL1        0.0000
     31 H           3.7005   -1.5963   10.8091 H       1  UNL1        0.0000
     32 H           5.9420   -0.0599    8.3462 H       1  UNL1        0.0000
     33 H           6.4037    0.0502   10.0299 H       1  UNL1        0.0000
     34 H           6.2753    1.5063    9.0684 H       1  UNL1        0.0000
@<TRIPOS>BOND
     1    27    16    1
     2    24    15    1
     3    22    12    1
     4    16    26    1
     5    16    28    1
     6    16     1    1
     7    15    25    1
     8    15    23    1
     9    15     1    1
    10    12     8    1
    11    12    11    1
    12     8     1    1
    13     8     9    1
    14    21    11    1
    15     1     3    1
    16    11    10    2
    17    32    14    1
    18     9    10    1
    19     9     2    1
    20    10    20    1
    21    34    14    1
    22    14     2    1
    23    14    33    1
    24     3     7    1
    25     3     4    1
    26    19     7    1
    27     2     4    1
    28     2    13    1
    29     7     6    1
    30     4     5    1
    31    31    13    1
    32    13    29    1
    33    13    30    1
    34     6     5    2
    35     6    18    1
    36     5    17    1
