@<TRIPOS>MOLECULE
2,3,4,5,6,7,8,9,10,11
 27 28 0 0 0
SMALL
GASTEIGER

@<TRIPOS>ATOM
      1 SI          2.6595    5.8913    1.9402 Si      1  UNL1        0.0000
      2 C           2.5601    4.0081    2.0586 C.3     1  UNL1        0.0000
      3 C           1.8904    3.1990    1.0834 C.2     1  UNL1        0.0000
      4 C           2.3893    1.8945    1.1605 C.2     1  UNL1        0.0000
      5 C           3.4402    1.8763    2.1190 C.3     1  UNL1        0.0000
      6 C           3.5532    3.1883    2.6881 C.3     1  UNL1        0.0000
      7 C           3.8938    5.7005    0.5222 C.3     1  UNL1        0.0000
      8 C           3.5145    5.2606   -0.7880 C.2     1  UNL1        0.0000
      9 C           4.6457    4.7587   -1.4400 C.2     1  UNL1        0.0000
     10 C           5.7358    4.7897   -0.5267 C.3     1  UNL1        0.0000
     11 C           5.2793    5.3785    0.6993 C.3     1  UNL1        0.0000
     12 C           1.0233    6.7156    1.4258 C.3     1  UNL1        0.0000
     13 C           3.3989    6.7115    3.4875 C.3     1  UNL1        0.0000
     14 H           1.0395    3.5118    0.4938 H       1  UNL1        0.0000
     15 H           2.0005    1.0280    0.6418 H       1  UNL1        0.0000
     16 H           3.8826    0.9744    2.5278 H       1  UNL1        0.0000
     17 H           4.0819    3.4273    3.6003 H       1  UNL1        0.0000
     18 H           2.5490    5.4282   -1.2453 H       1  UNL1        0.0000
     19 H           4.7090    4.4663   -2.4800 H       1  UNL1        0.0000
     20 H           6.7739    4.6438   -0.8046 H       1  UNL1        0.0000
     21 H           5.9195    5.7586    1.4831 H       1  UNL1        0.0000
     22 H           1.1811    7.7658    1.2063 H       1  UNL1        0.0000
     23 H           0.2980    6.6516    2.2294 H       1  UNL1        0.0000
     24 H           0.5856    6.2553    0.5467 H       1  UNL1        0.0000
     25 H           3.5886    7.7638    3.3069 H       1  UNL1        0.0000
     26 H           4.3340    6.2496    3.7843 H       1  UNL1        0.0000
     27 H           2.7107    6.6387    4.3225 H       1  UNL1        0.0000
@<TRIPOS>BOND
     1    19     9    1
     2     9     8    2
     3     9    10    1
     4    18     8    1
     5    20    10    1
     6     8     7    1
     7    10    11    1
     8    14     3    1
     9     7    11    1
    10     7     1    1
    11    24    12    1
    12    15     4    1
    13    11    21    1
    14     3     4    2
    15     3     2    1
    16     4     5    1
    17    22    12    1
    18    12     1    1
    19    12    23    1
    20     1     2    1
    21     1    13    1
    22     2     6    1
    23     5    16    1
    24     5     6    1
    25     6    17    1
    26    25    13    1
    27    13    26    1
    28    13    27    1
