@<TRIPOS>MOLECULE
6,8,9,10,12,13,14,16,17,18
 75 76 0 0 0
SMALL
GASTEIGER

@<TRIPOS>ATOM
      1 SI          3.9699    3.9044   -1.3864 Si      1  UNL1        0.0000
      2 SI          6.5905    1.9257    3.3962 Si      1  UNL1        0.0000
      3 SI         -0.5194    3.5888    2.2277 Si      1  UNL1        0.0000
      4 SI          1.8296    6.4639    3.3872 Si      1  UNL1        0.0000
      5 SI          3.8548   -0.5833    2.3147 Si      1  UNL1        0.0000
      6 C           3.8295    1.5246    0.3208 C.2     1  UNL1        0.0000
      7 H           3.0736    1.0076   -0.2614 H       1  UNL1        0.0000
      8 C           4.3369    1.0829    1.5711 C.3     1  UNL1        0.0000
      9 C           5.4194    1.9594    1.9164 C.2     1  UNL1        0.0000
     10 C           5.5436    2.9051    0.8678 C.2     1  UNL1        0.0000
     11 H           6.3101    3.6695    0.8093 H       1  UNL1        0.0000
     12 C           4.5947    2.6272   -0.1438 C.2     1  UNL1        0.0000
     13 C           2.6776    4.5286   -0.1605 C.3     1  UNL1        0.0000
     14 C           1.5948    3.7259    0.2820 C.2     1  UNL1        0.0000
     15 H           1.1142    2.9554   -0.3107 H       1  UNL1        0.0000
     16 C           1.1175    4.2096    1.5278 C.2     1  UNL1        0.0000
     17 C           1.9491    5.3197    1.8921 C.3     1  UNL1        0.0000
     18 C           2.9075    5.4820    0.8594 C.3     1  UNL1        0.0000
     19 H           3.6464    6.2742    0.8176 H       1  UNL1        0.0000
     20 C           2.0253   -0.9674    1.8968 C.3     1  UNL1        0.0000
     21 H           1.7632   -0.7248    0.8711 H       1  UNL1        0.0000
     22 H           1.3582   -0.4223    2.5573 H       1  UNL1        0.0000
     23 H           1.8243   -2.0249    2.0362 H       1  UNL1        0.0000
     24 C           4.0319   -0.8152    4.1988 C.3     1  UNL1        0.0000
     25 H           5.0455   -0.6644    4.5483 H       1  UNL1        0.0000
     26 H           3.7388   -1.8265    4.4652 H       1  UNL1        0.0000
     27 H           3.3872   -0.1339    4.7426 H       1  UNL1        0.0000
     28 C           4.9341   -1.8836    1.4116 C.3     1  UNL1        0.0000
     29 H           5.9926   -1.6706    1.5126 H       1  UNL1        0.0000
     30 H           4.7098   -1.9142    0.3500 H       1  UNL1        0.0000
     31 H           4.7564   -2.8756    1.8129 H       1  UNL1        0.0000
     32 C           5.6864    2.1418    5.0697 C.3     1  UNL1        0.0000
     33 H           5.9738    1.3774    5.7848 H       1  UNL1        0.0000
     34 H           4.6054    2.1020    4.9537 H       1  UNL1        0.0000
     35 H           5.9257    3.1064    5.5068 H       1  UNL1        0.0000
     36 C           7.5952    0.2960    3.3743 C.3     1  UNL1        0.0000
     37 H           8.1662    0.2042    2.4563 H       1  UNL1        0.0000
     38 H           6.9738   -0.5867    3.4626 H       1  UNL1        0.0000
     39 H           8.3006    0.2869    4.1984 H       1  UNL1        0.0000
     40 C           7.8912    3.3145    3.1783 C.3     1  UNL1        0.0000
     41 H           8.4564    3.1952    2.2587 H       1  UNL1        0.0000
     42 H           8.6016    3.2905    3.9987 H       1  UNL1        0.0000
     43 H           7.4329    4.2979    3.1708 H       1  UNL1        0.0000
     44 C           3.1404    7.8467    3.2024 C.3     1  UNL1        0.0000
     45 H           2.9989    8.4143    2.2874 H       1  UNL1        0.0000
     46 H           4.1483    7.4448    3.2008 H       1  UNL1        0.0000
     47 H           3.0671    8.5446    4.0304 H       1  UNL1        0.0000
     48 C           0.1311    7.3464    3.3646 C.3     1  UNL1        0.0000
     49 H          -0.6960    6.6641    3.5203 H       1  UNL1        0.0000
     50 H          -0.0352    7.8542    2.4204 H       1  UNL1        0.0000
     51 H           0.0928    8.0947    4.1490 H       1  UNL1        0.0000
     52 C           2.0706    5.5500    5.0520 C.3     1  UNL1        0.0000
     53 H           2.0477    4.4695    4.9281 H       1  UNL1        0.0000
     54 H           1.3034    5.8194    5.7712 H       1  UNL1        0.0000
     55 H           3.0322    5.8019    5.4886 H       1  UNL1        0.0000
     56 C          -1.9104    4.5946    1.3793 C.3     1  UNL1        0.0000
     57 H          -1.8272    4.5539    0.2980 H       1  UNL1        0.0000
     58 H          -1.8846    5.6396    1.6671 H       1  UNL1        0.0000
     59 H          -2.8850    4.2022    1.6495 H       1  UNL1        0.0000
     60 C          -0.7965    3.6390    4.1130 C.3     1  UNL1        0.0000
     61 H          -0.1233    2.9670    4.6330 H       1  UNL1        0.0000
     62 H          -1.8125    3.3277    4.3376 H       1  UNL1        0.0000
     63 H          -0.6587    4.6315    4.5248 H       1  UNL1        0.0000
     64 C          -0.6557    1.7742    1.6229 C.3     1  UNL1        0.0000
     65 H          -1.0078    1.7152    0.5971 H       1  UNL1        0.0000
     66 H          -1.3519    1.2091    2.2336 H       1  UNL1        0.0000
     67 H           0.3096    1.2758    1.6780 H       1  UNL1        0.0000
     68 C           3.2243    3.1395   -2.9632 C.3     1  UNL1        0.0000
     69 H           2.4799    2.3834   -2.7380 H       1  UNL1        0.0000
     70 H           3.9970    2.6732   -3.5646 H       1  UNL1        0.0000
     71 H           2.7479    3.9017   -3.5700 H       1  UNL1        0.0000
     72 C           5.2841    5.2195   -1.7948 C.3     1  UNL1        0.0000
     73 H           5.6964    5.6704   -0.8975 H       1  UNL1        0.0000
     74 H           4.8589    6.0129   -2.3996 H       1  UNL1        0.0000
     75 H           6.1042    4.7832   -2.3545 H       1  UNL1        0.0000
@<TRIPOS>BOND
     1    71    68    1
     2    70    68    1
     3    68    69    1
     4    68     1    1
     5    74    72    1
     6    75    72    1
     7    72     1    1
     8    72    73    1
     9     1    13    1
    10     1    12    1
    11    15    14    1
    12     7     6    1
    13    13    14    1
    14    13    18    1
    15    12     6    2
    16    12    10    1
    17    14    16    2
    18    57    56    1
    19     6     8    1
    20    30    28    1
    21    65    64    1
    22    11    10    1
    23    19    18    1
    24    18    17    1
    25    10     9    2
    26    21    20    1
    27    56    59    1
    28    56    58    1
    29    56     3    1
    30    28    29    1
    31    28    31    1
    32    28     5    1
    33    16    17    1
    34    16     3    1
    35     8     9    1
    36     8     5    1
    37    64    67    1
    38    64     3    1
    39    64    66    1
    40    17     4    1
    41    20    23    1
    42    20     5    1
    43    20    22    1
    44     9     2    1
    45     3    60    1
    46    41    40    1
    47    45    44    1
    48     5    24    1
    49    50    48    1
    50    37    36    1
    51    43    40    1
    52    40     2    1
    53    40    42    1
    54    46    44    1
    55    44     4    1
    56    44    47    1
    57    48     4    1
    58    48    49    1
    59    48    51    1
    60    36     2    1
    61    36    38    1
    62    36    39    1
    63     4    52    1
    64     2    32    1
    65    60    62    1
    66    60    63    1
    67    60    61    1
    68    24    26    1
    69    24    25    1
    70    24    27    1
    71    53    52    1
    72    34    32    1
    73    52    55    1
    74    52    54    1
    75    32    35    1
    76    32    33    1
