@<TRIPOS>MOLECULE
3,4,5,6,7,8,9,10,11
 51 52 0 0 0
SMALL
GASTEIGER

@<TRIPOS>ATOM
      1 SI          3.5518   -0.8259    9.2134 Si      1  UNL1        0.0000
      2 C           2.4425    0.2253   10.3529 C.3     1  UNL1        0.0000
      3 C           2.8999    0.7691   11.6088 C.2     1  UNL1        0.0000
      4 C           2.1512    1.9204   11.8984 C.2     1  UNL1        0.0000
      5 C           1.1843    2.1032   10.8356 C.2     1  UNL1        0.0000
      6 C           1.3557    1.0614    9.9039 C.2     1  UNL1        0.0000
      7 C           4.4721    0.7512    8.6589 C.3     1  UNL1        0.0000
      8 C           3.9014    1.7009    7.7359 C.2     1  UNL1        0.0000
      9 C           4.4613    2.9650    7.9965 C.2     1  UNL1        0.0000
     10 C           5.4081    2.8222    9.0813 C.2     1  UNL1        0.0000
     11 C           5.4206    1.4715    9.4755 C.2     1  UNL1        0.0000
     12 C           3.8513    0.1537   12.5778 C.3     1  UNL1        0.0000
     13 C           2.1164    2.5935   13.2363 C.3     1  UNL1        0.0000
     14 C          -0.0342    2.9713   10.9324 C.3     1  UNL1        0.0000
     15 C           0.4149    0.8175    8.7745 C.3     1  UNL1        0.0000
     16 C           3.0328    1.4103    6.5579 C.3     1  UNL1        0.0000
     17 C           4.3647    4.1665    7.1066 C.3     1  UNL1        0.0000
     18 C           6.4140    3.8606    9.4736 C.3     1  UNL1        0.0000
     19 C           6.4196    0.9115   10.4298 C.3     1  UNL1        0.0000
     20 C           2.6957   -1.8671    7.8529 C.3     1  UNL1        0.0000
     21 C           4.5809   -2.2224   10.0258 C.3     1  UNL1        0.0000
     22 H           4.6376    0.8559   12.8482 H       1  UNL1        0.0000
     23 H           4.3051   -0.7435   12.1754 H       1  UNL1        0.0000
     24 H           3.3188   -0.1130   13.4930 H       1  UNL1        0.0000
     25 H           1.5417    1.9797   13.9352 H       1  UNL1        0.0000
     26 H           1.6488    3.5753   13.1861 H       1  UNL1        0.0000
     27 H           3.1199    2.7139   13.6405 H       1  UNL1        0.0000
     28 H          -0.8525    2.3915   11.3674 H       1  UNL1        0.0000
     29 H          -0.3545    3.3229    9.9531 H       1  UNL1        0.0000
     30 H           0.1371    3.8399   11.5666 H       1  UNL1        0.0000
     31 H          -0.5007    0.3513    9.1450 H       1  UNL1        0.0000
     32 H           0.8476    0.1689    8.0236 H       1  UNL1        0.0000
     33 H           0.1411    1.7591    8.3020 H       1  UNL1        0.0000
     34 H           2.0952    1.9598    6.6180 H       1  UNL1        0.0000
     35 H           2.8122    0.3520    6.4847 H       1  UNL1        0.0000
     36 H           3.5403    1.7158    5.6411 H       1  UNL1        0.0000
     37 H           5.2028    4.1721    6.4048 H       1  UNL1        0.0000
     38 H           4.3993    5.0922    7.6817 H       1  UNL1        0.0000
     39 H           3.4409    4.1509    6.5322 H       1  UNL1        0.0000
     40 H           6.7854    3.6806   10.4805 H       1  UNL1        0.0000
     41 H           5.9832    4.8613    9.4373 H       1  UNL1        0.0000
     42 H           7.2645    3.8304    8.7878 H       1  UNL1        0.0000
     43 H           7.4177    0.9575    9.9895 H       1  UNL1        0.0000
     44 H           6.2043   -0.1204   10.6753 H       1  UNL1        0.0000
     45 H           6.4358    1.4907   11.3512 H       1  UNL1        0.0000
     46 H           1.8547   -1.4011    7.3569 H       1  UNL1        0.0000
     47 H           2.3353   -2.7891    8.2969 H       1  UNL1        0.0000
     48 H           3.4212   -2.1364    7.0915 H       1  UNL1        0.0000
     49 H           5.0694   -2.7947    9.2440 H       1  UNL1        0.0000
     50 H           3.9152   -2.8976   10.5544 H       1  UNL1        0.0000
     51 H           5.3483   -1.9091   10.7212 H       1  UNL1        0.0000
@<TRIPOS>BOND
     1    36    16    1
     2    37    17    1
     3    35    16    1
     4    39    17    1
     5    16    34    1
     6    16     8    1
     7    48    20    1
     8    17    38    1
     9    17     9    1
    10    46    20    1
    11     8     9    2
    12     8     7    1
    13    20    47    1
    14    20     1    1
    15     9    10    1
    16    32    15    1
    17    33    15    1
    18     7     1    1
    19     7    11    1
    20    15    31    1
    21    15     6    1
    22    42    18    1
    23    10    18    1
    24    10    11    2
    25     1    21    1
    26     1     2    1
    27    49    21    1
    28    41    18    1
    29    18    40    1
    30    11    19    1
    31     6     2    1
    32     6     5    2
    33    29    14    1
    34    43    19    1
    35    21    50    1
    36    21    51    1
    37     2     3    1
    38    19    44    1
    39    19    45    1
    40     5    14    1
    41     5     4    1
    42    14    28    1
    43    14    30    1
    44     3     4    2
    45     3    12    1
    46     4    13    1
    47    23    12    1
    48    12    22    1
    49    12    24    1
    50    26    13    1
    51    13    27    1
    52    13    25    1
