@<TRIPOS>MOLECULE
1,2,3,5,14,30,31,32,34,43
 57 60 0 0 0
SMALL
GASTEIGER

@<TRIPOS>ATOM
      1 C          -3.1181    0.6196    3.6699 C.3     1  UNL1        0.0000
      2 C          -1.9593   -0.1635    3.9836 C.3     1  UNL1        0.0000
      3 C          -1.2499    0.4287    5.0438 C.3     1  UNL1        0.0000
      4 H          -0.3824    0.0124    5.5367 H       1  UNL1        0.0000
      5 C          -1.9773    1.5727    5.4831 C.ar    1  UNL1        0.0000
      6 C          -1.7411    2.5151    6.4996 C.ar    1  UNL1        0.0000
      7 H          -0.8896    2.4052    7.1577 H       1  UNL1        0.0000
      8 C          -2.5996    3.5785    6.6265 C.ar    1  UNL1        0.0000
      9 H          -2.4259    4.3208    7.3909 H       1  UNL1        0.0000
     10 C          -3.7056    3.7289    5.7725 C.ar    1  UNL1        0.0000
     11 H          -4.3477    4.5877    5.9004 H       1  UNL1        0.0000
     12 C          -3.9873    2.8099    4.7905 C.ar    1  UNL1        0.0000
     13 H          -4.8486    2.9379    4.1485 H       1  UNL1        0.0000
     14 C          -3.1307    1.7045    4.6243 C.ar    1  UNL1        0.0000
     15 C          -1.3043   -1.1336    3.0221 C.3     1  UNL1        0.0000
     16 H          -0.5769   -1.7629    3.5335 H       1  UNL1        0.0000
     17 SI         -4.6231    0.1918    2.6209 Si      1  UNL1        0.0000
     18 C          -4.9111    1.4600    1.2210 C.3     1  UNL1        0.0000
     19 H          -4.0100    1.6573    0.6437 H       1  UNL1        0.0000
     20 H          -5.2376    2.4160    1.6195 H       1  UNL1        0.0000
     21 H          -5.6795    1.1128    0.5361 H       1  UNL1        0.0000
     22 C          -6.1457    0.1368    3.7814 C.3     1  UNL1        0.0000
     23 H          -6.2589    1.0467    4.3605 H       1  UNL1        0.0000
     24 H          -6.0721   -0.6865    4.4858 H       1  UNL1        0.0000
     25 H          -7.0573   -0.0041    3.2091 H       1  UNL1        0.0000
     26 C          -4.5460   -1.5593    1.8444 C.3     1  UNL1        0.0000
     27 H          -5.5202   -1.7953    1.4284 H       1  UNL1        0.0000
     28 H          -4.3239   -2.3225    2.5835 H       1  UNL1        0.0000
     29 H          -3.8279   -1.6509    1.0363 H       1  UNL1        0.0000
     30 C           0.5094    0.6196    2.3743 C.3     1  UNL1        0.0000
     31 C          -0.6493   -0.1634    2.0605 C.3     1  UNL1        0.0000
     32 C          -1.3587    0.4287    1.0003 C.3     1  UNL1        0.0000
     33 H          -2.2262    0.0123    0.5074 H       1  UNL1        0.0000
     34 C          -0.6314    1.5727    0.5611 C.ar    1  UNL1        0.0000
     35 C          -0.8676    2.5151   -0.4554 C.ar    1  UNL1        0.0000
     36 H          -1.7190    2.4052   -1.1136 H       1  UNL1        0.0000
     37 C          -0.0091    3.5786   -0.5823 C.ar    1  UNL1        0.0000
     38 H          -0.1828    4.3208   -1.3467 H       1  UNL1        0.0000
     39 C           1.0969    3.7290    0.2716 C.ar    1  UNL1        0.0000
     40 H           1.7390    4.5878    0.1438 H       1  UNL1        0.0000
     41 C           1.3785    2.8100    1.2537 C.ar    1  UNL1        0.0000
     42 H           2.2399    2.9380    1.8956 H       1  UNL1        0.0000
     43 C           0.5220    1.7046    1.4199 C.ar    1  UNL1        0.0000
     44 H          -2.0317   -1.7629    2.5107 H       1  UNL1        0.0000
     45 SI          2.0145    0.1918    3.4232 Si      1  UNL1        0.0000
     46 C           2.3025    1.4601    4.8230 C.3     1  UNL1        0.0000
     47 H           1.4015    1.6574    5.4004 H       1  UNL1        0.0000
     48 H           2.6290    2.4160    4.4246 H       1  UNL1        0.0000
     49 H           3.0710    1.1128    5.5079 H       1  UNL1        0.0000
     50 C           3.5370    0.1368    2.2626 C.3     1  UNL1        0.0000
     51 H           3.6502    1.0466    1.6835 H       1  UNL1        0.0000
     52 H           3.4634   -0.6866    1.5582 H       1  UNL1        0.0000
     53 H           4.4487   -0.0041    2.8348 H       1  UNL1        0.0000
     54 C           1.9374   -1.5593    4.1997 C.3     1  UNL1        0.0000
     55 H           2.9116   -1.7953    4.6157 H       1  UNL1        0.0000
     56 H           1.7153   -2.3225    3.4606 H       1  UNL1        0.0000
     57 H           1.2193   -1.6509    5.0078 H       1  UNL1        0.0000
@<TRIPOS>BOND
     1    38    37    1
     2    36    35    1
     3    37    35   ar
     4    37    39   ar
     5    35    34   ar
     6    40    39    1
     7    39    41   ar
     8    33    32    1
     9    21    18    1
    10    34    32    1
    11    34    43   ar
    12    19    18    1
    13    32    31    1
    14    29    26    1
    15    18    20    1
    16    18    17    1
    17    41    43   ar
    18    41    42    1
    19    43    30    1
    20    27    26    1
    21    52    50    1
    22    51    50    1
    23    26    28    1
    24    26    17    1
    25    31    30    1
    26    31    15    1
    27    50    53    1
    28    50    45    1
    29    30    45    1
    30    44    15    1
    31    17     1    1
    32    17    22    1
    33    15    16    1
    34    15     2    1
    35    25    22    1
    36    45    54    1
    37    45    46    1
    38    56    54    1
    39     1     2    1
    40     1    14    1
    41    22    23    1
    42    22    24    1
    43     2     3    1
    44    13    12    1
    45    54    55    1
    46    54    57    1
    47    48    46    1
    48    14    12   ar
    49    14     5   ar
    50    12    10   ar
    51    46    47    1
    52    46    49    1
    53     3     5    1
    54     3     4    1
    55     5     6   ar
    56    10    11    1
    57    10     8   ar
    58     6     8   ar
    59     6     7    1
    60     8     9    1
