@<TRIPOS>MOLECULE
2,3,4,13,14,16,22,23,24,25
 39 40 0 0 0
SMALL
GASTEIGER

@<TRIPOS>ATOM
      1 SI          0.8526    3.4508    8.9725 Si      1  UNL1        0.0000
      2 C           2.3235    3.4508    7.7661 C.3     1  UNL1        0.0000
      3 C           2.7574    4.5995    7.0244 C.3     1  UNL1        0.0000
      4 C           3.5022    4.1617    5.8994 C.2     1  UNL1        0.0000
      5 C           2.5433    6.0510    7.3580 C.3     1  UNL1        0.0000
      6 H           2.0815    6.1667    8.3328 H       1  UNL1        0.0000
      7 H           1.9100    6.5286    6.6008 H       1  UNL1        0.0000
      8 H           3.4981    6.5790    7.3729 H       1  UNL1        0.0000
      9 C           4.2627    5.0272    4.9366 C.3     1  UNL1        0.0000
     10 H           4.1922    4.6296    3.9228 H       1  UNL1        0.0000
     11 H           5.3193    5.0629    5.2130 H       1  UNL1        0.0000
     12 H           3.8708    6.0426    4.9310 H       1  UNL1        0.0000
     13 C          -0.4057    3.4507    7.5608 C.2     1  UNL1        0.0000
     14 C          -0.7400    2.3088    6.7789 C.2     1  UNL1        0.0000
     15 H          -0.6848    1.2776    7.1107 H       1  UNL1        0.0000
     16 C          -1.3444    2.7464    5.5809 C.2     1  UNL1        0.0000
     17 H          -1.8032    2.1119    4.8321 H       1  UNL1        0.0000
     18 C           0.6841    4.9749   10.1137 C.3     1  UNL1        0.0000
     19 H          -0.0018    4.7457   10.9222 H       1  UNL1        0.0000
     20 H           0.2923    5.8467    9.6012 H       1  UNL1        0.0000
     21 H           1.6343    5.2428   10.5635 H       1  UNL1        0.0000
     22 C           2.7575    2.3021    7.0244 C.3     1  UNL1        0.0000
     23 C           3.5023    2.7399    5.8995 C.2     1  UNL1        0.0000
     24 C          -0.7401    4.5926    6.7790 C.3     1  UNL1        0.0000
     25 C          -1.3446    4.1550    5.5810 C.2     1  UNL1        0.0000
     26 H          -0.6849    5.6239    7.1108 H       1  UNL1        0.0000
     27 H          -1.8034    4.7896    4.8323 H       1  UNL1        0.0000
     28 C           2.5433    0.8505    7.3580 C.3     1  UNL1        0.0000
     29 H           2.0815    0.7348    8.3327 H       1  UNL1        0.0000
     30 H           1.9099    0.3730    6.6007 H       1  UNL1        0.0000
     31 H           3.4980    0.3225    7.3728 H       1  UNL1        0.0000
     32 C           4.2628    1.8744    4.9367 C.3     1  UNL1        0.0000
     33 H           4.1923    2.2720    3.9229 H       1  UNL1        0.0000
     34 H           5.3194    1.8385    5.2131 H       1  UNL1        0.0000
     35 H           3.8708    0.8590    4.9310 H       1  UNL1        0.0000
     36 C           0.6842    1.9266   10.1137 C.3     1  UNL1        0.0000
     37 H          -0.0018    2.1559   10.9222 H       1  UNL1        0.0000
     38 H           0.2925    1.0548    9.6014 H       1  UNL1        0.0000
     39 H           1.6344    1.6590   10.5637 H       1  UNL1        0.0000
@<TRIPOS>BOND
     1    10     9    1
     2    33    32    1
     3    17    16    1
     4    27    25    1
     5    12     9    1
     6    35    32    1
     7     9    11    1
     8     9     4    1
     9    32    34    1
    10    32    23    1
    11    16    25    2
    12    16    14    1
    13    25    24    1
    14     4    23    2
    15     4     3    1
    16    23    22    1
    17    30    28    1
    18     7     5    1
    19    14    15    1
    20    14    13    2
    21    24    26    1
    22    24    13    1
    23     3     5    1
    24     3     2    1
    25    22    28    1
    26    22     2    1
    27    28    31    1
    28    28    29    1
    29     5     8    1
    30     5     6    1
    31    13     1    1
    32     2     1    1
    33     1    18    1
    34     1    36    1
    35    20    18    1
    36    38    36    1
    37    18    21    1
    38    18    19    1
    39    36    39    1
    40    36    37    1
