@<TRIPOS>MOLECULE
2,3,5,7,8,10,11,13,15,16
 51 52 0 0 0
SMALL
GASTEIGER

@<TRIPOS>ATOM
      1 SI          2.9725    6.8979    1.3296 Si      1  UNL1        0.0000
      2 C           2.3862    5.1765    0.8264 C.3     1  UNL1        0.0000
      3 C           2.3820    4.7173   -0.5176 C.2     1  UNL1        0.0000
      4 H           2.2824    5.3441   -1.3984 H       1  UNL1        0.0000
      5 C           2.3159    3.3140   -0.5101 C.2     1  UNL1        0.0000
      6 H           2.1649    2.6923   -1.3833 H       1  UNL1        0.0000
      7 C           2.2984    2.8707    0.8349 C.2     1  UNL1        0.0000
      8 C           2.3790    4.0183    1.6503 C.2     1  UNL1        0.0000
      9 H           2.2896    4.0405    2.7294 H       1  UNL1        0.0000
     10 C           4.7399    6.6703    0.7093 C.3     1  UNL1        0.0000
     11 C           5.0619    6.4184   -0.6509 C.2     1  UNL1        0.0000
     12 H           4.4757    6.7361   -1.5076 H       1  UNL1        0.0000
     13 C           6.3583    5.8805   -0.7107 C.2     1  UNL1        0.0000
     14 H           6.9225    5.7129   -1.6193 H       1  UNL1        0.0000
     15 C           6.8610    5.7674    0.6085 C.2     1  UNL1        0.0000
     16 C           5.8475    6.2202    1.4781 C.2     1  UNL1        0.0000
     17 H           5.9411    6.3588    2.5481 H       1  UNL1        0.0000
     18 C           2.0116    1.4455    1.2629 C.3     1  UNL1        0.0000
     19 C           2.0814    1.2937    2.7855 C.3     1  UNL1        0.0000
     20 H           3.0550    1.5947    3.1647 H       1  UNL1        0.0000
     21 H           1.9100    0.2556    3.0640 H       1  UNL1        0.0000
     22 H           1.3177    1.9016    3.2645 H       1  UNL1        0.0000
     23 C           0.5899    1.0779    0.8060 C.3     1  UNL1        0.0000
     24 H           0.5060    1.1355   -0.2759 H       1  UNL1        0.0000
     25 H          -0.1331    1.7646    1.2397 H       1  UNL1        0.0000
     26 H           0.3395    0.0660    1.1186 H       1  UNL1        0.0000
     27 C           3.0113    0.4819    0.6076 C.3     1  UNL1        0.0000
     28 H           2.9092    0.5041   -0.4751 H       1  UNL1        0.0000
     29 H           2.8281   -0.5376    0.9431 H       1  UNL1        0.0000
     30 H           4.0354    0.7581    0.8644 H       1  UNL1        0.0000
     31 C           8.3000    5.4383    0.9513 C.3     1  UNL1        0.0000
     32 C           8.7025    4.0957    0.3248 C.3     1  UNL1        0.0000
     33 H           8.0392    3.2989    0.6655 H       1  UNL1        0.0000
     34 H           9.7252    3.8424    0.5995 H       1  UNL1        0.0000
     35 H           8.6482    4.1492   -0.7603 H       1  UNL1        0.0000
     36 C           8.5140    5.3773    2.4668 C.3     1  UNL1        0.0000
     37 H           7.8566    4.6427    2.9257 H       1  UNL1        0.0000
     38 H           8.3216    6.3475    2.9182 H       1  UNL1        0.0000
     39 H           9.5438    5.1016    2.6861 H       1  UNL1        0.0000
     40 C           9.2007    6.5464    0.3806 C.3     1  UNL1        0.0000
     41 H          10.2428    6.3558    0.6301 H       1  UNL1        0.0000
     42 H           8.9156    7.5114    0.7929 H       1  UNL1        0.0000
     43 H           9.1088    6.5988   -0.7008 H       1  UNL1        0.0000
     44 C           2.0288    8.3193    0.4741 C.3     1  UNL1        0.0000
     45 H           2.4737    9.2784    0.7160 H       1  UNL1        0.0000
     46 H           0.9928    8.3426    0.7945 H       1  UNL1        0.0000
     47 H           2.0382    8.2137   -0.6053 H       1  UNL1        0.0000
     48 C           2.9373    7.1030    3.2291 C.3     1  UNL1        0.0000
     49 H           3.3929    8.0417    3.5241 H       1  UNL1        0.0000
     50 H           3.4730    6.3002    3.7285 H       1  UNL1        0.0000
     51 H           1.9178    7.1036    3.5983 H       1  UNL1        0.0000
@<TRIPOS>BOND
     1    14    13    1
     2    12    11    1
     3     4     3    1
     4     6     5    1
     5    35    32    1
     6    13    11    2
     7    13    15    1
     8    43    40    1
     9    11    10    1
    10    47    44    1
    11     3     5    2
    12     3     2    1
    13     5     7    1
    14    28    27    1
    15    24    23    1
    16    32    34    1
    17    32    33    1
    18    32    31    1
    19    40    41    1
    20    40    42    1
    21    40    31    1
    22    44    45    1
    23    44    46    1
    24    44     1    1
    25    27    30    1
    26    27    29    1
    27    27    18    1
    28    15    31    1
    29    15    16    2
    30    10     1    1
    31    10    16    1
    32    23    26    1
    33    23    25    1
    34    23    18    1
    35     2     1    1
    36     2     8    1
    37     7    18    1
    38     7     8    2
    39    31    36    1
    40    18    19    1
    41     1    48    1
    42    16    17    1
    43     8     9    1
    44    36    39    1
    45    36    38    1
    46    36    37    1
    47    19    21    1
    48    19    20    1
    49    19    22    1
    50    48    49    1
    51    48    51    1
    52    48    50    1
