@<TRIPOS>MOLECULE
7,8,9,10,11,12,13,14,15,16
 48 49 0 0 0
SMALL
GASTEIGER

@<TRIPOS>ATOM
      1 SI         10.5574   -1.7231    9.8371 Si      1  UNL1        0.0000
      2 SI          8.3437   -0.8807    9.7000 Si      1  UNL1        0.0000
      3 C          11.1138   -2.2551   11.5920 C.3     1  UNL1        0.0000
      4 C          10.8974   -3.1445    8.6083 C.3     1  UNL1        0.0000
      5 C           7.2972   -1.6886    8.3241 C.3     1  UNL1        0.0000
      6 C           7.3724   -0.9258   11.3506 C.3     1  UNL1        0.0000
      7 C          11.6398   -0.2633    9.3203 C.3     1  UNL1        0.0000
      8 C          12.3877   -0.1729    8.1194 C.2     1  UNL1        0.0000
      9 C          13.0867    1.0423    8.1016 C.2     1  UNL1        0.0000
     10 C          12.8129    1.7382    9.3033 C.2     1  UNL1        0.0000
     11 C          11.9197    0.9312   10.0499 C.2     1  UNL1        0.0000
     12 C           8.6113    0.9304    9.2381 C.2     1  UNL1        0.0000
     13 C           8.2010    1.5772    8.0452 C.2     1  UNL1        0.0000
     14 C           8.5935    2.9216    8.0932 C.2     1  UNL1        0.0000
     15 C           9.2512    3.1402    9.3211 C.2     1  UNL1        0.0000
     16 C           9.2513    1.9236   10.0335 C.3     1  UNL1        0.0000
     17 C          13.5084    2.9835    9.8086 C.3     1  UNL1        0.0000
     18 C          14.4102    3.5863    8.7281 C.3     1  UNL1        0.0000
     19 C          14.3676    2.5895   11.0217 C.3     1  UNL1        0.0000
     20 C          12.4781    4.0386   10.2279 C.3     1  UNL1        0.0000
     21 H          12.1686   -2.5127   11.6165 H       1  UNL1        0.0000
     22 H          10.9502   -1.4706   12.3242 H       1  UNL1        0.0000
     23 H          10.5553   -3.1257   11.9183 H       1  UNL1        0.0000
     24 H          11.9419   -3.4434    8.6130 H       1  UNL1        0.0000
     25 H          10.3048   -4.0205    8.8520 H       1  UNL1        0.0000
     26 H          10.6393   -2.8428    7.5972 H       1  UNL1        0.0000
     27 H           6.3143   -1.2322    8.2449 H       1  UNL1        0.0000
     28 H           7.7921   -1.5883    7.3623 H       1  UNL1        0.0000
     29 H           7.1521   -2.7475    8.5131 H       1  UNL1        0.0000
     30 H           6.4199   -0.4109   11.2682 H       1  UNL1        0.0000
     31 H           7.1678   -1.9504   11.6422 H       1  UNL1        0.0000
     32 H           7.9276   -0.4614   12.1595 H       1  UNL1        0.0000
     33 H          12.4737   -0.9520    7.3739 H       1  UNL1        0.0000
     34 H          13.7643    1.3563    7.3203 H       1  UNL1        0.0000
     35 H          11.6775    1.0792   11.0941 H       1  UNL1        0.0000
     36 H           7.6127    1.1240    7.2594 H       1  UNL1        0.0000
     37 H           8.3819    3.6754    7.3461 H       1  UNL1        0.0000
     38 H           9.5622    4.1047    9.6980 H       1  UNL1        0.0000
     39 H           9.4908    1.8149   11.0834 H       1  UNL1        0.0000
     40 H          13.8288    3.8193    7.8388 H       1  UNL1        0.0000
     41 H          14.8628    4.5054    9.0942 H       1  UNL1        0.0000
     42 H          15.2089    2.8979    8.4616 H       1  UNL1        0.0000
     43 H          13.7471    2.2273   11.8378 H       1  UNL1        0.0000
     44 H          15.0681    1.8032   10.7492 H       1  UNL1        0.0000
     45 H          14.9324    3.4495   11.3747 H       1  UNL1        0.0000
     46 H          11.9058    4.3514    9.3544 H       1  UNL1        0.0000
     47 H          11.8007    3.6461   10.9853 H       1  UNL1        0.0000
     48 H          12.9827    4.9101   10.6409 H       1  UNL1        0.0000
@<TRIPOS>BOND
     1    36    13    1
     2    34     9    1
     3    37    14    1
     4    28     5    1
     5    33     8    1
     6    26     4    1
     7    40    18    1
     8    13    14    1
     9    13    12    2
    10    14    15    2
    11     9     8    2
    12     9    10    1
    13     8     7    1
    14    27     5    1
    15     5    29    1
    16     5     2    1
    17    42    18    1
    18     4    24    1
    19     4    25    1
    20     4     1    1
    21    18    41    1
    22    18    17    1
    23    12     2    1
    24    12    16    1
    25    10    17    1
    26    10    11    2
    27     7     1    1
    28     7    11    1
    29    15    38    1
    30    15    16    1
    31    46    20    1
    32     2     1    1
    33     2     6    1
    34    17    20    1
    35    17    19    1
    36     1     3    1
    37    16    39    1
    38    11    35    1
    39    20    48    1
    40    20    47    1
    41    44    19    1
    42    19    45    1
    43    19    43    1
    44    30     6    1
    45     6    31    1
    46     6    32    1
    47     3    21    1
    48     3    23    1
    49     3    22    1
