@<TRIPOS>MOLECULE
6,8,9,10,11,37,39,40,41
 65 70 0 0 0
SMALL
GASTEIGER

@<TRIPOS>ATOM
      1 S           6.1371    2.0810    3.1916 S.3     1  UNL1        0.0000
      2 S           4.3089    6.6746    7.7400 S.3     1  UNL1        0.0000
      3 SI          3.8241    4.9294    4.3463 Si      1  UNL1        0.0000
      4 C           7.0547    0.7891    3.9655 C.2     1  UNL1        0.0000
      5 C           6.7498    0.6276    5.2837 C.2     1  UNL1        0.0000
      6 C           4.9968    1.8683    6.8833 C.2     1  UNL1        0.0000
      7 H           4.9994    1.3196    7.8173 H       1  UNL1        0.0000
      8 C           4.1165    2.9258    6.5561 C.3     1  UNL1        0.0000
      9 C           4.2719    3.2844    5.1752 C.3     1  UNL1        0.0000
     10 C           5.7534    1.5650    5.7207 C.2     1  UNL1        0.0000
     11 C           5.3198    2.4459    4.6915 C.3     1  UNL1        0.0000
     12 C           8.0756    0.0813    3.1480 C.3     1  UNL1        0.0000
     13 H           8.8257   -0.3673    3.7958 H       1  UNL1        0.0000
     14 H           8.5641    0.7814    2.4722 H       1  UNL1        0.0000
     15 H           7.6190   -0.7039    2.5429 H       1  UNL1        0.0000
     16 C           7.3900   -0.3041    6.2164 C.ar    1  UNL1        0.0000
     17 C           7.6324   -1.6329    5.8804 C.ar    1  UNL1        0.0000
     18 H           7.3242   -2.0040    4.9145 H       1  UNL1        0.0000
     19 C           8.2365   -2.4841    6.7878 C.ar    1  UNL1        0.0000
     20 H           8.4168   -3.5146    6.5177 H       1  UNL1        0.0000
     21 C           8.6065   -2.0205    8.0387 C.ar    1  UNL1        0.0000
     22 H           9.0805   -2.6861    8.7448 H       1  UNL1        0.0000
     23 C           8.3642   -0.7001    8.3824 C.ar    1  UNL1        0.0000
     24 H           8.6518   -0.3333    9.3567 H       1  UNL1        0.0000
     25 C           7.7560    0.1544    7.4827 C.ar    1  UNL1        0.0000
     26 H           7.5876    1.1932    7.7526 H       1  UNL1        0.0000
     27 C           3.1134    3.4818    7.5269 C.3     1  UNL1        0.0000
     28 H           2.3555    2.7297    7.7547 H       1  UNL1        0.0000
     29 H           2.6118    4.3579    7.1261 H       1  UNL1        0.0000
     30 H           3.6062    3.7502    8.4657 H       1  UNL1        0.0000
     31 C           2.2072    5.7698    4.9032 C.3     1  UNL1        0.0000
     32 H           1.9244    6.5219    4.1746 H       1  UNL1        0.0000
     33 H           2.3022    6.2679    5.8622 H       1  UNL1        0.0000
     34 H           1.3921    5.0569    4.9674 H       1  UNL1        0.0000
     35 C           5.6703    7.0679    8.7896 C.2     1  UNL1        0.0000
     36 C           6.8813    6.8727    8.1963 C.2     1  UNL1        0.0000
     37 C           7.5625    6.0550    5.7389 C.2     1  UNL1        0.0000
     38 H           8.6360    6.1796    5.6659 H       1  UNL1        0.0000
     39 C           6.7064    5.6818    4.6768 C.3     1  UNL1        0.0000
     40 C           5.3358    5.8020    5.0856 C.3     1  UNL1        0.0000
     41 C           6.7457    6.3819    6.8533 C.2     1  UNL1        0.0000
     42 C           5.3923    6.2053    6.4528 C.3     1  UNL1        0.0000
     43 C           5.3689    7.4913   10.1830 C.3     1  UNL1        0.0000
     44 H           6.2281    7.3032   10.8234 H       1  UNL1        0.0000
     45 H           4.5138    6.9363   10.5655 H       1  UNL1        0.0000
     46 H           5.1242    8.5540   10.2266 H       1  UNL1        0.0000
     47 C           8.1944    7.0340    8.8269 C.ar    1  UNL1        0.0000
     48 C           9.1634    6.0494    8.6282 C.ar    1  UNL1        0.0000
     49 H           8.9289    5.1701    8.0348 H       1  UNL1        0.0000
     50 C          10.4093    6.1723    9.2132 C.ar    1  UNL1        0.0000
     51 H          11.1493    5.4006    9.0607 H       1  UNL1        0.0000
     52 C          10.7098    7.2777    9.9929 C.ar    1  UNL1        0.0000
     53 H          11.6851    7.3715   10.4473 H       1  UNL1        0.0000
     54 C           9.7565    8.2629   10.1853 C.ar    1  UNL1        0.0000
     55 H           9.9884    9.1301   10.7865 H       1  UNL1        0.0000
     56 C           8.5056    8.1437    9.6074 C.ar    1  UNL1        0.0000
     57 H           7.7726    8.9250    9.7406 H       1  UNL1        0.0000
     58 C           7.2134    5.3209    3.3092 C.3     1  UNL1        0.0000
     59 H           7.6671    6.1936    2.8355 H       1  UNL1        0.0000
     60 H           6.4132    4.9640    2.6673 H       1  UNL1        0.0000
     61 H           7.9832    4.5475    3.3847 H       1  UNL1        0.0000
     62 C           3.7671    4.7473    2.4505 C.3     1  UNL1        0.0000
     63 H           4.4175    3.9595    2.0852 H       1  UNL1        0.0000
     64 H           4.0399    5.6731    1.9553 H       1  UNL1        0.0000
     65 H           2.7564    4.5004    2.1441 H       1  UNL1        0.0000
@<TRIPOS>BOND
     1    64    62    1
     2    63    62    1
     3    65    62    1
     4    62     3    1
     5    14    12    1
     6    15    12    1
     7    60    58    1
     8    59    58    1
     9    12    13    1
    10    12     4    1
    11     1     4    1
    12     1    11    1
    13    58    61    1
    14    58    39    1
    15     4     5    2
    16    32    31    1
    17     3    31    1
    18     3    40    1
    19     3     9    1
    20    39    40    1
    21    39    37    1
    22    11     9    1
    23    11    10    1
    24    31    34    1
    25    31    33    1
    26    18    17    1
    27    40    42    1
    28     9     8    1
    29     5    10    1
    30     5    16    1
    31    38    37    1
    32    10     6    2
    33    37    41    2
    34    17    16   ar
    35    17    19   ar
    36    16    25   ar
    37    42    41    1
    38    42     2    1
    39    20    19    1
    40     8     6    1
    41     8    27    1
    42    19    21   ar
    43    41    36    1
    44     6     7    1
    45    29    27    1
    46    25    26    1
    47    25    23   ar
    48    27    28    1
    49    27    30    1
    50     2    35    1
    51    49    48    1
    52    21    23   ar
    53    21    22    1
    54    36    35    2
    55    36    47    1
    56    23    24    1
    57    48    47   ar
    58    48    50   ar
    59    35    43    1
    60    47    56   ar
    61    51    50    1
    62    50    52   ar
    63    56    57    1
    64    56    54   ar
    65    52    54   ar
    66    52    53    1
    67    43    46    1
    68    43    45    1
    69    43    44    1
    70    54    55    1
