@<TRIPOS>MOLECULE
8,10,12,13,14,15,16,17,18,19
 71 76 0 0 0
SMALL
GASTEIGER

@<TRIPOS>ATOM
      1 S           7.5971   11.3534    3.8403 S.2     1  UNL1        0.0000
      2 S           3.9143    9.3068   -1.3518 S.3     1  UNL1        0.0000
      3 SI          4.1941   10.9516    2.1118 Si      1  UNL1        0.0000
      4 C           9.0954   10.4276    3.9567 C.ar    1  UNL1        0.0000
      5 C           4.9307    9.1859   -2.7913 C.2     1  UNL1        0.0000
      6 C           5.9911   10.0383   -2.7739 C.2     1  UNL1        0.0000
      7 C           8.9963    9.1769    3.4378 C.ar    1  UNL1        0.0000
      8 C           6.9785    7.8722    2.2621 C.3     1  UNL1        0.0000
      9 H           7.3457    6.8727    2.0604 H       1  UNL1        0.0000
     10 C           6.8430   11.8072   -0.9582 C.2     1  UNL1        0.0000
     11 H           7.6879   12.3131   -1.4100 H       1  UNL1        0.0000
     12 C           5.6538    8.3238    2.0541 C.3     1  UNL1        0.0000
     13 C           6.2496   12.1390    0.2813 C.2     1  UNL1        0.0000
     14 C           5.0485   11.3740    0.4726 C.3     1  UNL1        0.0000
     15 C           5.5053    9.6591    2.5654 C.3     1  UNL1        0.0000
     16 C           6.0432   10.8003   -1.5593 C.3     1  UNL1        0.0000
     17 C           7.6965    8.9213    2.8900 C.ar    1  UNL1        0.0000
     18 C           6.8049   10.0204    3.0342 C.ar    1  UNL1        0.0000
     19 C           4.9683   10.5224   -0.6705 C.3     1  UNL1        0.0000
     20 C          10.0819    8.1764    3.4328 C.ar    1  UNL1        0.0000
     21 C           7.0584   10.1519   -3.7806 C.ar    1  UNL1        0.0000
     22 C           4.5899    8.1462   -3.7972 C.3     1  UNL1        0.0000
     23 H           5.4254    8.0071   -4.4786 H       1  UNL1        0.0000
     24 H           3.7026    8.4220   -4.3686 H       1  UNL1        0.0000
     25 H           4.3856    7.2007   -3.2966 H       1  UNL1        0.0000
     26 C          10.2828   11.0713    4.5773 C.3     1  UNL1        0.0000
     27 H          11.0559   10.3263    4.7529 H       1  UNL1        0.0000
     28 H          10.0177   11.5458    5.5214 H       1  UNL1        0.0000
     29 H          10.6853   11.8393    3.9154 H       1  UNL1        0.0000
     30 C           8.3725   10.0046   -3.3337 C.ar    1  UNL1        0.0000
     31 H           8.5590    9.8015   -2.2830 H       1  UNL1        0.0000
     32 C          11.1685    8.3378    2.5833 C.ar    1  UNL1        0.0000
     33 H          11.2080    9.2027    1.9385 H       1  UNL1        0.0000
     34 C          12.1789    7.3934    2.5534 C.ar    1  UNL1        0.0000
     35 H          13.0184    7.5232    1.8867 H       1  UNL1        0.0000
     36 C           9.4317   10.0914   -4.2147 C.ar    1  UNL1        0.0000
     37 H          10.4421    9.9653   -3.8560 H       1  UNL1        0.0000
     38 C          12.1072    6.2851    3.3784 C.ar    1  UNL1        0.0000
     39 H          12.8921    5.5431    3.3608 H       1  UNL1        0.0000
     40 C           9.1899   10.3423   -5.5557 C.ar    1  UNL1        0.0000
     41 H          10.0116   10.4080   -6.2536 H       1  UNL1        0.0000
     42 C          11.0288    6.1271    4.2318 C.ar    1  UNL1        0.0000
     43 H          10.9812    5.2628    4.8796 H       1  UNL1        0.0000
     44 C           7.8932   10.5262   -5.9956 C.ar    1  UNL1        0.0000
     45 H           7.7070   10.7477   -7.0373 H       1  UNL1        0.0000
     46 C          10.0053    7.0623    4.2735 C.ar    1  UNL1        0.0000
     47 C           6.8126   10.4433   -5.1244 C.ar    1  UNL1        0.0000
     48 C           5.4326   10.7149   -5.6458 C.3     1  UNL1        0.0000
     49 H           4.7480   10.9529   -4.8363 H       1  UNL1        0.0000
     50 H           5.0452    9.8492   -6.1823 H       1  UNL1        0.0000
     51 H           5.4578   11.5509   -6.3426 H       1  UNL1        0.0000
     52 C           8.8492    6.8994    5.2140 C.3     1  UNL1        0.0000
     53 H           9.0100    6.0547    5.8792 H       1  UNL1        0.0000
     54 H           7.9242    6.7357    4.6621 H       1  UNL1        0.0000
     55 H           8.7179    7.7997    5.8133 H       1  UNL1        0.0000
     56 C           4.5693    7.4574    1.4777 C.3     1  UNL1        0.0000
     57 H           4.3379    6.6394    2.1631 H       1  UNL1        0.0000
     58 H           4.9004    7.0155    0.5339 H       1  UNL1        0.0000
     59 H           3.6579    8.0226    1.3042 H       1  UNL1        0.0000
     60 C           6.7808   13.2274    1.1707 C.3     1  UNL1        0.0000
     61 H           6.6802   14.1957    0.6765 H       1  UNL1        0.0000
     62 H           7.8439   13.0664    1.3701 H       1  UNL1        0.0000
     63 H           6.2446   13.2708    2.1142 H       1  UNL1        0.0000
     64 C           2.4197   10.3248    1.8109 C.3     1  UNL1        0.0000
     65 H           2.1064    9.6346    2.5869 H       1  UNL1        0.0000
     66 H           2.3053    9.8345    0.8499 H       1  UNL1        0.0000
     67 H           1.7350   11.1659    1.8286 H       1  UNL1        0.0000
     68 C           4.1128   12.3291    3.4263 C.3     1  UNL1        0.0000
     69 H           3.3766   12.0654    4.1779 H       1  UNL1        0.0000
     70 H           3.8082   13.2746    2.9905 H       1  UNL1        0.0000
     71 H           5.0584   12.4770    3.9370 H       1  UNL1        0.0000
@<TRIPOS>BOND
     1    45    44    1
     2    51    48    1
     3    41    40    1
     4    50    48    1
     5    44    40   ar
     6    44    47   ar
     7    48    47    1
     8    48    49    1
     9    40    36   ar
    10    47    21   ar
    11    23    22    1
    12    24    22    1
    13    36    37    1
    14    36    30   ar
    15    22    25    1
    16    22     5    1
    17    21    30   ar
    18    21     6    1
    19    30    31    1
    20     5     6    2
    21     5     2    1
    22     6    16    1
    23    16    10    1
    24    16    19    1
    25    11    10    1
    26     2    19    1
    27    10    13    2
    28    19    14    1
    29    13    14    1
    30    13    60    1
    31    14     3    1
    32    58    56    1
    33    61    60    1
    34    66    64    1
    35    60    62    1
    36    60    63    1
    37    59    56    1
    38    56    12    1
    39    56    57    1
    40    64    67    1
    41    64     3    1
    42    64    65    1
    43    35    34    1
    44    33    32    1
    45    12     8    1
    46    12    15    1
    47     9     8    1
    48     3    15    1
    49     3    68    1
    50     8    17    1
    51    34    32   ar
    52    34    38   ar
    53    15    18    1
    54    32    20   ar
    55    17    18   ar
    56    17     7   ar
    57    70    68    1
    58    18     1   ar
    59    39    38    1
    60    38    42   ar
    61    68    71    1
    62    68    69    1
    63    20     7    1
    64    20    46   ar
    65     7     4   ar
    66     1     4   ar
    67    29    26    1
    68     4    26    1
    69    42    46   ar
    70    42    43    1
    71    46    52    1
    72    26    27    1
    73    26    28    1
    74    54    52    1
    75    52    55    1
    76    52    53    1
