@<TRIPOS>MOLECULE
8,9,10,11,13,33,34,35,36,38
 61 66 0 0 0
SMALL
GASTEIGER

@<TRIPOS>ATOM
      1 SI         15.5205    7.1674    0.7066 Si      1  UNL1        0.0000
      2 N          11.0170    7.6321   -1.8351 N.pl3   1  UNL1        0.0000
      3 N          13.3166    2.6991    2.1689 N.pl3   1  UNL1        0.0000
      4 C          11.9983    7.6853   -2.8038 C.2     1  UNL1        0.0000
      5 H          11.7310    7.6807   -3.8428 H       1  UNL1        0.0000
      6 C          13.2463    7.6872   -2.2487 C.2     1  UNL1        0.0000
      7 H          14.1654    7.7580   -2.8000 H       1  UNL1        0.0000
      8 C          13.0712    7.6277   -0.8306 C.3     1  UNL1        0.0000
      9 C          13.7194    7.6935    0.4562 C.3     1  UNL1        0.0000
     10 C          12.6616    7.6367    1.4172 C.3     1  UNL1        0.0000
     11 C          11.3960    7.5970    0.7718 C.2     1  UNL1        0.0000
     12 H          10.4383    7.6818    1.2692 H       1  UNL1        0.0000
     13 C          11.6580    7.5867   -0.6173 C.2     1  UNL1        0.0000
     14 C          12.7986    7.6718    2.9139 C.3     1  UNL1        0.0000
     15 H          12.2262    8.5054    3.3240 H       1  UNL1        0.0000
     16 H          13.8365    7.7943    3.2083 H       1  UNL1        0.0000
     17 H          12.4032    6.7505    3.3547 H       1  UNL1        0.0000
     18 C           9.6509    7.4331   -2.0505 C.ar    1  UNL1        0.0000
     19 C           9.0093    8.0316   -3.1314 C.ar    1  UNL1        0.0000
     20 H           9.5682    8.6657   -3.8030 H       1  UNL1        0.0000
     21 C           7.6578    7.8236   -3.3333 C.ar    1  UNL1        0.0000
     22 H           7.1659    8.2926   -4.1727 H       1  UNL1        0.0000
     23 C           6.9354    7.0242   -2.4635 C.ar    1  UNL1        0.0000
     24 H           5.8797    6.8659   -2.6238 H       1  UNL1        0.0000
     25 C           7.5745    6.4229   -1.3913 C.ar    1  UNL1        0.0000
     26 H           7.0198    5.7865   -0.7183 H       1  UNL1        0.0000
     27 C           8.9257    6.6206   -1.1797 C.ar    1  UNL1        0.0000
     28 H           9.4280    6.1170   -0.3614 H       1  UNL1        0.0000
     29 C          13.5726    3.3875    3.3373 C.2     1  UNL1        0.0000
     30 H          13.2058    3.0147    4.2740 H       1  UNL1        0.0000
     31 C          14.2605    4.5422    3.0943 C.2     1  UNL1        0.0000
     32 H          14.6012    5.2262    3.8490 H       1  UNL1        0.0000
     33 C          14.4637    4.6160    1.6805 C.3     1  UNL1        0.0000
     34 C          15.1118    5.3221    0.6025 C.3     1  UNL1        0.0000
     35 C          14.8166    4.5680   -0.5764 C.3     1  UNL1        0.0000
     36 C          14.0663    3.4046   -0.2560 C.2     1  UNL1        0.0000
     37 H          13.8287    2.6049   -0.9456 H       1  UNL1        0.0000
     38 C          13.8480    3.4441    1.1402 C.2     1  UNL1        0.0000
     39 C          15.2571    4.8785   -1.9799 C.3     1  UNL1        0.0000
     40 H          15.7777    4.0207   -2.4082 H       1  UNL1        0.0000
     41 H          15.9306    5.7302   -1.9982 H       1  UNL1        0.0000
     42 H          14.3897    5.0892   -2.6149 H       1  UNL1        0.0000
     43 C          12.4833    1.5861    2.0300 C.ar    1  UNL1        0.0000
     44 C          11.6604    1.4750    0.9098 C.ar    1  UNL1        0.0000
     45 H          11.6421    2.2661    0.1685 H       1  UNL1        0.0000
     46 C          10.8347    0.3755    0.7718 C.ar    1  UNL1        0.0000
     47 H          10.1937    0.2990   -0.0936 H       1  UNL1        0.0000
     48 C          10.8170   -0.6162    1.7391 C.ar    1  UNL1        0.0000
     49 H          10.1696   -1.4726    1.6260 H       1  UNL1        0.0000
     50 C          11.6282   -0.5014    2.8554 C.ar    1  UNL1        0.0000
     51 H          11.6169   -1.2699    3.6142 H       1  UNL1        0.0000
     52 C          12.4605    0.5921    3.0044 C.ar    1  UNL1        0.0000
     53 H          13.1017    0.6737    3.8691 H       1  UNL1        0.0000
     54 C          16.3492    7.6054    2.3695 C.3     1  UNL1        0.0000
     55 H          16.0205    6.9764    3.1878 H       1  UNL1        0.0000
     56 H          16.1647    8.6402    2.6385 H       1  UNL1        0.0000
     57 H          17.4231    7.4809    2.2793 H       1  UNL1        0.0000
     58 C          16.6542    7.9026   -0.6416 C.3     1  UNL1        0.0000
     59 H          16.1574    8.0233   -1.5965 H       1  UNL1        0.0000
     60 H          17.5353    7.2873   -0.7903 H       1  UNL1        0.0000
     61 H          16.9938    8.8842   -0.3288 H       1  UNL1        0.0000
@<TRIPOS>BOND
     1    22    21    1
     2     5     4    1
     3    20    19    1
     4    21    19   ar
     5    21    23   ar
     6    19    18   ar
     7     4     6    2
     8     4     2    1
     9     7     6    1
    10    24    23    1
    11    42    39    1
    12    23    25   ar
    13    40    39    1
    14     6     8    1
    15    18     2    1
    16    18    27   ar
    17    41    39    1
    18    39    35    1
    19     2    13    1
    20    59    58    1
    21    25    27   ar
    22    25    26    1
    23    27    28    1
    24    37    36    1
    25     8    13    1
    26     8     9    1
    27    60    58    1
    28    58    61    1
    29    58     1    1
    30    13    11    2
    31    35    36    1
    32    35    34    1
    33    36    38    2
    34    47    46    1
    35    45    44    1
    36     9     1    1
    37     9    10    1
    38    34     1    1
    39    34    33    1
    40     1    54    1
    41    46    44   ar
    42    46    48   ar
    43    11    12    1
    44    11    10    1
    45    44    43   ar
    46    38    33    1
    47    38     3    1
    48    10    14    1
    49    49    48    1
    50    33    31    1
    51    48    50   ar
    52    43     3    1
    53    43    52   ar
    54     3    29    1
    55    57    54    1
    56    54    56    1
    57    54    55    1
    58    50    52   ar
    59    50    51    1
    60    14    16    1
    61    14    15    1
    62    14    17    1
    63    52    53    1
    64    31    29    2
    65    31    32    1
    66    29    30    1
