@<TRIPOS>MOLECULE
2,3,5,7,9,16,18,20,22
 27 28 0 0 0
SMALL
GASTEIGER

@<TRIPOS>ATOM
      1 SI         -1.0393   -0.1426    2.5398 Si      1  UNL1        0.0000
      2 C          -0.4283    1.1780    1.3244 C.3     1  UNL1        0.0000
      3 C          -1.2704    1.9283    0.4571 C.2     1  UNL1        0.0000
      4 H          -2.2328    1.6038    0.0733 H       1  UNL1        0.0000
      5 C          -0.5661    3.0745    0.0264 C.2     1  UNL1        0.0000
      6 H          -0.8983    3.7820   -0.7247 H       1  UNL1        0.0000
      7 C           0.6933    3.0750    0.6583 C.2     1  UNL1        0.0000
      8 H           1.4934    3.7830    0.4751 H       1  UNL1        0.0000
      9 C           0.7697    1.9291    1.4808 C.2     1  UNL1        0.0000
     10 H           1.6530    1.6054    2.0230 H       1  UNL1        0.0000
     11 C           0.3734   -1.1971    3.2532 C.3     1  UNL1        0.0000
     12 H           0.0052   -1.8387    4.0465 H       1  UNL1        0.0000
     13 H           1.1761   -0.5926    3.6631 H       1  UNL1        0.0000
     14 H           0.7988   -1.8340    2.4852 H       1  UNL1        0.0000
     15 C          -1.6503    1.1779    3.7553 C.3     1  UNL1        0.0000
     16 C          -0.8083    1.9282    4.6226 C.2     1  UNL1        0.0000
     17 H           0.1541    1.6036    5.0065 H       1  UNL1        0.0000
     18 C          -1.5126    3.0744    5.0533 C.2     1  UNL1        0.0000
     19 H          -1.1804    3.7818    5.8045 H       1  UNL1        0.0000
     20 C          -2.7719    3.0749    4.4214 C.2     1  UNL1        0.0000
     21 H          -3.5720    3.7829    4.6045 H       1  UNL1        0.0000
     22 C          -2.8484    1.9290    3.5988 C.2     1  UNL1        0.0000
     23 H          -3.7316    1.6054    3.0566 H       1  UNL1        0.0000
     24 C          -2.4518   -1.1973    1.8264 C.3     1  UNL1        0.0000
     25 H          -2.0831   -1.8403    1.0346 H       1  UNL1        0.0000
     26 H          -3.2536   -0.5927    1.4145 H       1  UNL1        0.0000
     27 H          -2.8787   -1.8326    2.5949 H       1  UNL1        0.0000
@<TRIPOS>BOND
     1     6     5    1
     2     5     3    2
     3     5     7    1
     4     4     3    1
     5     3     2    1
     6     8     7    1
     7     7     9    2
     8    25    24    1
     9     2     9    1
    10     2     1    1
    11    26    24    1
    12     9    10    1
    13    24     1    1
    14    24    27    1
    15    14    11    1
    16     1    11    1
    17     1    15    1
    18    23    22    1
    19    11    13    1
    20    11    12    1
    21    22    15    1
    22    22    20    2
    23    15    16    1
    24    20    21    1
    25    20    18    1
    26    16    17    1
    27    16    18    2
    28    18    19    1
