@<TRIPOS>MOLECULE
3,4,13,14,23,32,33,35,36,38
 51 54 0 0 0
SMALL
GASTEIGER

@<TRIPOS>ATOM
      1 SI          4.6473    2.7397    5.3828 Si      1  UNL1        0.0000
      2 C           0.3281   -0.2268    3.5705 C.3     1  UNL1        0.0000
      3 C           0.5085    0.4720    2.2078 C.3     1  UNL1        0.0000
      4 C          -0.1458    1.7074    1.8381 C.ar    1  UNL1        0.0000
      5 C          -1.2623    2.4259    2.3324 C.ar    1  UNL1        0.0000
      6 H          -1.8748    2.0384    3.1311 H       1  UNL1        0.0000
      7 C          -1.6395    3.6086    1.7408 C.ar    1  UNL1        0.0000
      8 H          -2.4954    4.1397    2.1315 H       1  UNL1        0.0000
      9 C          -0.9627    4.1406    0.6361 C.ar    1  UNL1        0.0000
     10 H          -1.2997    5.0689    0.2024 H       1  UNL1        0.0000
     11 C           0.1148    3.4749    0.1027 C.ar    1  UNL1        0.0000
     12 H           0.6334    3.8624   -0.7640 H       1  UNL1        0.0000
     13 C           0.5399    2.2798    0.6956 C.ar    1  UNL1        0.0000
     14 C           1.6094    1.3931    0.3429 C.ar    1  UNL1        0.0000
     15 C           2.5301    1.4621   -0.7079 C.ar    1  UNL1        0.0000
     16 H           2.5027    2.2971   -1.3950 H       1  UNL1        0.0000
     17 C           3.4569    0.4580   -0.8530 C.ar    1  UNL1        0.0000
     18 H           4.1802    0.4939   -1.6526 H       1  UNL1        0.0000
     19 C           3.4592   -0.6254    0.0329 C.ar    1  UNL1        0.0000
     20 H           4.1861   -1.4117   -0.1083 H       1  UNL1        0.0000
     21 C           2.5609   -0.7285    1.0688 C.ar    1  UNL1        0.0000
     22 H           2.5899   -1.6179    1.6761 H       1  UNL1        0.0000
     23 C           1.5975    0.2862    1.2778 C.ar    1  UNL1        0.0000
     24 C           0.9293   -1.6372    3.6266 C.3     1  UNL1        0.0000
     25 H           2.0099   -1.6289    3.5417 H       1  UNL1        0.0000
     26 H           0.5091   -2.2555    2.8366 H       1  UNL1        0.0000
     27 H           0.6858   -2.0920    4.5851 H       1  UNL1        0.0000
     28 C          -1.1510   -0.3713    3.9681 C.3     1  UNL1        0.0000
     29 H          -1.2510   -1.1153    4.7553 H       1  UNL1        0.0000
     30 H          -1.7350   -0.6995    3.1112 H       1  UNL1        0.0000
     31 H          -1.5753    0.5491    4.3499 H       1  UNL1        0.0000
     32 C           1.1079    0.7437    4.4579 C.3     1  UNL1        0.0000
     33 C           2.5285    0.7884    4.5444 C.3     1  UNL1        0.0000
     34 H           3.2221   -0.0300    4.3803 H       1  UNL1        0.0000
     35 C           2.9181    2.0703    5.0343 C.3     1  UNL1        0.0000
     36 C           1.7262    2.8126    5.2335 C.2     1  UNL1        0.0000
     37 H           1.6672    3.7961    5.6832 H       1  UNL1        0.0000
     38 C           0.6259    2.0150    4.8722 C.2     1  UNL1        0.0000
     39 H          -0.4062    2.3024    5.0183 H       1  UNL1        0.0000
     40 C           5.9650    1.4634    4.8557 C.3     1  UNL1        0.0000
     41 H           5.8684    0.5390    5.4179 H       1  UNL1        0.0000
     42 H           6.9619    1.8506    5.0382 H       1  UNL1        0.0000
     43 H           5.8897    1.2283    3.7989 H       1  UNL1        0.0000
     44 C           4.8042    3.0356    7.2671 C.3     1  UNL1        0.0000
     45 H           4.7118    2.1101    7.8256 H       1  UNL1        0.0000
     46 H           4.0425    3.7164    7.6326 H       1  UNL1        0.0000
     47 H           5.7705    3.4667    7.5046 H       1  UNL1        0.0000
     48 C           4.7671    4.4189    4.4801 C.3     1  UNL1        0.0000
     49 H           5.7278    4.8961    4.6476 H       1  UNL1        0.0000
     50 H           3.9974    5.1046    4.8282 H       1  UNL1        0.0000
     51 H           4.6383    4.3030    3.4053 H       1  UNL1        0.0000
@<TRIPOS>BOND
     1    18    17    1
     2    16    15    1
     3    17    15   ar
     4    17    19   ar
     5    12    11    1
     6    15    14   ar
     7    20    19    1
     8    19    21   ar
     9    11     9   ar
    10    11    13   ar
    11    10     9    1
    12    14    13    1
    13    14    23   ar
    14     9     7   ar
    15    13     4   ar
    16    21    23   ar
    17    21    22    1
    18    23     3    1
    19     7     8    1
    20     7     5   ar
    21     4     3    1
    22     4     5   ar
    23     3     2    1
    24     5     6    1
    25    26    24    1
    26    30    28    1
    27    51    48    1
    28    25    24    1
    29     2    24    1
    30     2    28    1
    31     2    32    1
    32    24    27    1
    33    43    40    1
    34    28    31    1
    35    28    29    1
    36    34    33    1
    37    32    33    1
    38    32    38    1
    39    48    49    1
    40    48    50    1
    41    48     1    1
    42    33    35    1
    43    40    42    1
    44    40     1    1
    45    40    41    1
    46    38    39    1
    47    38    36    2
    48    35    36    1
    49    35     1    1
    50    36    37    1
    51     1    44    1
    52    44    47    1
    53    44    46    1
    54    44    45    1
