@<TRIPOS>MOLECULE
3,4,13,14,23,32,33,35,36,38
 51 54 0 0 0
SMALL
GASTEIGER

@<TRIPOS>ATOM
      1 SI          4.6626    2.7569    5.4164 Si      1  UNL1        0.0000
      2 C           0.3599   -0.1965    3.5707 C.3     1  UNL1        0.0000
      3 C           0.5645    0.5077    2.2162 C.3     1  UNL1        0.0000
      4 C          -0.0972    1.7364    1.8227 C.ar    1  UNL1        0.0000
      5 C          -1.1987    2.4786    2.3182 C.ar    1  UNL1        0.0000
      6 H          -1.7757    2.1404    3.1632 H       1  UNL1        0.0000
      7 C          -1.6061    3.6228    1.6735 C.ar    1  UNL1        0.0000
      8 H          -2.4508    4.1703    2.0648 H       1  UNL1        0.0000
      9 C          -0.9695    4.0960    0.5210 C.ar    1  UNL1        0.0000
     10 H          -1.3266    4.9964    0.0472 H       1  UNL1        0.0000
     11 C           0.0991    3.4103   -0.0063 C.ar    1  UNL1        0.0000
     12 H           0.5889    3.7549   -0.9056 H       1  UNL1        0.0000
     13 C           0.5510    2.2514    0.6315 C.ar    1  UNL1        0.0000
     14 C           1.5967    1.3407    0.2753 C.ar    1  UNL1        0.0000
     15 C           2.4692    1.3555   -0.8142 C.ar    1  UNL1        0.0000
     16 H           2.4183    2.1605   -1.5328 H       1  UNL1        0.0000
     17 C           3.3830    0.3386   -0.9568 C.ar    1  UNL1        0.0000
     18 H           4.0695    0.3346   -1.7887 H       1  UNL1        0.0000
     19 C           3.4178   -0.7026   -0.0254 C.ar    1  UNL1        0.0000
     20 H           4.1335   -1.5003   -0.1595 H       1  UNL1        0.0000
     21 C           2.5628   -0.7512    1.0508 C.ar    1  UNL1        0.0000
     22 H           2.6185   -1.6064    1.7018 H       1  UNL1        0.0000
     23 C           1.6191    0.2793    1.2541 C.ar    1  UNL1        0.0000
     24 C           0.9539   -1.6093    3.6339 C.3     1  UNL1        0.0000
     25 H           2.0354   -1.6079    3.5700 H       1  UNL1        0.0000
     26 H           0.5461   -2.2242    2.8352 H       1  UNL1        0.0000
     27 H           0.6900   -2.0643    4.5866 H       1  UNL1        0.0000
     28 C          -1.1247   -0.3438    3.9400 C.3     1  UNL1        0.0000
     29 H          -1.2312   -1.0442    4.7653 H       1  UNL1        0.0000
     30 H          -1.6795   -0.7297    3.0879 H       1  UNL1        0.0000
     31 H          -1.5780    0.5872    4.2552 H       1  UNL1        0.0000
     32 C           1.1255    0.7647    4.4748 C.3     1  UNL1        0.0000
     33 C           2.5490    0.8413    4.5038 C.3     1  UNL1        0.0000
     34 H           3.2473    0.0357    4.3145 H       1  UNL1        0.0000
     35 C           2.9283    2.1180    5.0236 C.3     1  UNL1        0.0000
     36 C           1.7256    2.8202    5.2900 C.2     1  UNL1        0.0000
     37 H           1.6621    3.7813    5.7796 H       1  UNL1        0.0000
     38 C           0.6322    2.0088    4.9417 C.2     1  UNL1        0.0000
     39 H          -0.3985    2.2586    5.1395 H       1  UNL1        0.0000
     40 C           5.9641    1.5120    4.7914 C.3     1  UNL1        0.0000
     41 H           5.8934    1.3693    3.7181 H       1  UNL1        0.0000
     42 H           5.8532    0.5437    5.2708 H       1  UNL1        0.0000
     43 H           6.9649    1.8689    5.0112 H       1  UNL1        0.0000
     44 C           4.8093    2.9121    7.3153 C.3     1  UNL1        0.0000
     45 H           5.7725    3.3289    7.5888 H       1  UNL1        0.0000
     46 H           4.7179    1.9478    7.8041 H       1  UNL1        0.0000
     47 H           4.0422    3.5609    7.7251 H       1  UNL1        0.0000
     48 C           4.8187    4.4839    4.6212 C.3     1  UNL1        0.0000
     49 H           4.3923    4.4989    3.6200 H       1  UNL1        0.0000
     50 H           5.8565    4.7908    4.5407 H       1  UNL1        0.0000
     51 H           4.3015    5.2368    5.2089 H       1  UNL1        0.0000
@<TRIPOS>BOND
     1    18    17    1
     2    16    15    1
     3    17    15   ar
     4    17    19   ar
     5    12    11    1
     6    15    14   ar
     7    20    19    1
     8    19    21   ar
     9    11     9   ar
    10    11    13   ar
    11    10     9    1
    12    14    13    1
    13    14    23   ar
    14     9     7   ar
    15    13     4   ar
    16    21    23   ar
    17    21    22    1
    18    23     3    1
    19     7     8    1
    20     7     5   ar
    21     4     3    1
    22     4     5   ar
    23     3     2    1
    24     5     6    1
    25    26    24    1
    26    30    28    1
    27    25    24    1
    28     2    24    1
    29     2    28    1
    30     2    32    1
    31    49    48    1
    32    24    27    1
    33    41    40    1
    34    28    31    1
    35    28    29    1
    36    34    33    1
    37    32    33    1
    38    32    38    1
    39    33    35    1
    40    50    48    1
    41    48    51    1
    42    48     1    1
    43    40    43    1
    44    40    42    1
    45    40     1    1
    46    38    39    1
    47    38    36    2
    48    35    36    1
    49    35     1    1
    50    36    37    1
    51     1    44    1
    52    44    45    1
    53    44    47    1
    54    44    46    1
