@<TRIPOS>MOLECULE
1,2,3,4,5,31,32,33,35,36
 60 63 0 0 0
SMALL
GASTEIGER

@<TRIPOS>ATOM
      1 C           5.4348    2.7331    3.0869 C.2     1  UNL1        0.0000
      2 C           4.2119    3.1498    2.5103 C.2     1  UNL1        0.0000
      3 C           3.1504    2.8770    3.4267 C.3     1  UNL1        0.0000
      4 C           3.7479    2.2481    4.5549 C.2     1  UNL1        0.0000
      5 C           5.1375    2.1491    4.3556 C.2     1  UNL1        0.0000
      6 C           6.0918    1.3920    5.2260 C.3     1  UNL1        0.0000
      7 C           6.7141    0.1954    4.4388 C.3     1  UNL1        0.0000
      8 C           7.7137    0.6621    3.4601 C.3     1  UNL1        0.0000
      9 C           7.2980    1.2954    2.1942 C.3     1  UNL1        0.0000
     10 C           6.7800    2.7512    2.4275 C.3     1  UNL1        0.0000
     11 SI          1.3545    3.4291    3.2940 Si      1  UNL1        0.0000
     12 C           0.6212    2.7003    1.6802 C.3     1  UNL1        0.0000
     13 C           0.4169    2.7002    4.7891 C.3     1  UNL1        0.0000
     14 H           4.0824    3.4520    1.4770 H       1  UNL1        0.0000
     15 H           3.2073    1.8319    5.3968 H       1  UNL1        0.0000
     16 H           6.9090    2.0284    5.5766 H       1  UNL1        0.0000
     17 H           5.5557    1.0072    6.0975 H       1  UNL1        0.0000
     18 H           6.7109    3.2599    1.4611 H       1  UNL1        0.0000
     19 H           7.5107    3.2776    3.0524 H       1  UNL1        0.0000
     20 H           6.4884    0.7299    1.7249 H       1  UNL1        0.0000
     21 H           8.1412    1.3445    1.5022 H       1  UNL1        0.0000
     22 H           8.7100    0.8654    3.8188 H       1  UNL1        0.0000
     23 H           7.1814   -0.4736    5.1638 H       1  UNL1        0.0000
     24 H           5.8995   -0.3364    3.9405 H       1  UNL1        0.0000
     25 H          -0.4172    2.9926    1.5704 H       1  UNL1        0.0000
     26 H           1.1527    3.0496    0.8011 H       1  UNL1        0.0000
     27 H           0.6599    1.6156    1.6774 H       1  UNL1        0.0000
     28 H          -0.6313    2.9797    4.7658 H       1  UNL1        0.0000
     29 H           0.4655    1.6152    4.8069 H       1  UNL1        0.0000
     30 H           0.8377    3.0721    5.7189 H       1  UNL1        0.0000
     31 C           5.4347    6.5133    3.0870 C.2     1  UNL1        0.0000
     32 C           4.2118    6.0966    2.5104 C.2     1  UNL1        0.0000
     33 C           3.1504    6.3694    3.4270 C.3     1  UNL1        0.0000
     34 H           4.0822    5.7945    1.4771 H       1  UNL1        0.0000
     35 C           3.7480    6.9982    4.5551 C.2     1  UNL1        0.0000
     36 C           5.1376    7.0972    4.3557 C.2     1  UNL1        0.0000
     37 C           6.7799    6.4951    2.4274 C.3     1  UNL1        0.0000
     38 C           7.2978    7.9509    2.1939 C.3     1  UNL1        0.0000
     39 C           7.7136    8.5844    3.4597 C.3     1  UNL1        0.0000
     40 C           6.7140    9.0510    4.4385 C.3     1  UNL1        0.0000
     41 C           6.0920    7.8545    5.2259 C.3     1  UNL1        0.0000
     42 H           3.2075    7.4145    5.3971 H       1  UNL1        0.0000
     43 H           6.9092    7.2181    5.5765 H       1  UNL1        0.0000
     44 H           5.5560    8.2392    6.0975 H       1  UNL1        0.0000
     45 H           7.1814    9.7202    5.1633 H       1  UNL1        0.0000
     46 H           5.8993    9.5826    3.9402 H       1  UNL1        0.0000
     47 H           8.7099    8.3812    3.8184 H       1  UNL1        0.0000
     48 H           6.4882    8.5163    1.7246 H       1  UNL1        0.0000
     49 H           8.1411    7.9018    1.5019 H       1  UNL1        0.0000
     50 H           6.7107    5.9863    1.4611 H       1  UNL1        0.0000
     51 H           7.5106    5.9689    3.0523 H       1  UNL1        0.0000
     52 SI          1.3545    5.8174    3.2943 Si      1  UNL1        0.0000
     53 C           0.6210    6.5466    1.6808 C.3     1  UNL1        0.0000
     54 H          -0.4174    6.2542    1.5711 H       1  UNL1        0.0000
     55 H           1.1524    6.1975    0.8015 H       1  UNL1        0.0000
     56 H           0.6596    7.6313    1.6782 H       1  UNL1        0.0000
     57 C           0.4170    6.5461    4.7897 C.3     1  UNL1        0.0000
     58 H          -0.6311    6.2665    4.7665 H       1  UNL1        0.0000
     59 H           0.4656    7.6310    4.8076 H       1  UNL1        0.0000
     60 H           0.8379    6.1740    5.7194 H       1  UNL1        0.0000
@<TRIPOS>BOND
     1    26    12    1
     2    55    53    1
     3    50    37    1
     4    18    10    1
     5    14     2    1
     6    34    32    1
     7    49    38    1
     8    21     9    1
     9    25    12    1
    10    54    53    1
    11    27    12    1
    12    56    53    1
    13    12    11    1
    14    53    52    1
    15    48    38    1
    16    20     9    1
    17    38    37    1
    18    38    39    1
    19     9    10    1
    20     9     8    1
    21    37    51    1
    22    37    31    1
    23    10    19    1
    24    10     1    1
    25     2     1    2
    26     2     3    1
    27    32    31    2
    28    32    33    1
    29     1     5    1
    30    31    36    1
    31    11    52    1
    32    11     3    1
    33    11    13    1
    34    52    33    1
    35    52    57    1
    36     3     4    1
    37    33    35    1
    38    39    47    1
    39    39    40    1
    40     8    22    1
    41     8     7    1
    42    46    40    1
    43    24     7    1
    44     5     4    2
    45     5     6    1
    46    36    35    2
    47    36    41    1
    48    40    45    1
    49    40    41    1
    50     7    23    1
    51     7     6    1
    52     4    15    1
    53    35    42    1
    54    28    13    1
    55    58    57    1
    56    13    29    1
    57    13    30    1
    58    57    59    1
    59    57    60    1
    60    41    43    1
    61    41    44    1
    62     6    16    1
    63     6    17    1
