@<TRIPOS>MOLECULE
2,3,4,5,6,27,28,29,30,35
 51 52 0 0 0
SMALL
GASTEIGER

@<TRIPOS>ATOM
      1 SI         13.3208    6.0243    8.0691 Si      1  UNL1        0.0000
      2 C          12.6952    4.7142    9.2975 C.3     1  UNL1        0.0000
      3 C          13.5326    4.0040   10.2178 C.3     1  UNL1        0.0000
      4 C          12.8649    2.8277   10.6340 C.2     1  UNL1        0.0000
      5 C          11.6301    2.7535    9.9469 C.2     1  UNL1        0.0000
      6 C          11.5285    3.8907    9.0975 C.3     1  UNL1        0.0000
      7 C          14.7981    4.4830   10.8686 C.3     1  UNL1        0.0000
      8 C          13.3299    1.9047   11.7195 C.3     1  UNL1        0.0000
      9 C          10.5445    1.7499   10.1996 C.3     1  UNL1        0.0000
     10 C          10.2662    4.2201    8.3503 C.3     1  UNL1        0.0000
     11 C          14.6180    7.2747    8.7137 C.3     1  UNL1        0.0000
     12 H          15.6269    3.8005   10.6733 H       1  UNL1        0.0000
     13 H          15.0652    5.4771   10.5297 H       1  UNL1        0.0000
     14 H          14.6589    4.5234   11.9501 H       1  UNL1        0.0000
     15 H          13.0035    2.2741   12.6941 H       1  UNL1        0.0000
     16 H          12.9209    0.9058   11.5831 H       1  UNL1        0.0000
     17 H          14.4151    1.8297   11.7281 H       1  UNL1        0.0000
     18 H           9.9198    2.0755   11.0342 H       1  UNL1        0.0000
     19 H           9.9090    1.6276    9.3254 H       1  UNL1        0.0000
     20 H          10.9647    0.7779   10.4529 H       1  UNL1        0.0000
     21 H           9.4615    4.4334    9.0571 H       1  UNL1        0.0000
     22 H          10.3900    5.0872    7.7131 H       1  UNL1        0.0000
     23 H           9.9498    3.3740    7.7369 H       1  UNL1        0.0000
     24 H          15.6082    6.8848    8.9093 H       1  UNL1        0.0000
     25 H          14.7294    8.0654    7.9790 H       1  UNL1        0.0000
     26 H          14.2570    7.7342    9.6284 H       1  UNL1        0.0000
     27 C          13.9464    4.7143    6.8406 C.3     1  UNL1        0.0000
     28 C          13.1090    4.0041    5.9202 C.3     1  UNL1        0.0000
     29 C          15.1131    3.8908    7.0405 C.3     1  UNL1        0.0000
     30 C          13.7768    2.8279    5.5038 C.2     1  UNL1        0.0000
     31 C          11.8434    4.4830    5.2695 C.3     1  UNL1        0.0000
     32 H          11.0147    3.8004    5.4648 H       1  UNL1        0.0000
     33 H          11.5762    5.4770    5.6086 H       1  UNL1        0.0000
     34 H          11.9826    4.5236    4.1881 H       1  UNL1        0.0000
     35 C          15.0116    2.7537    6.1909 C.2     1  UNL1        0.0000
     36 C          16.3753    4.2201    7.7878 C.3     1  UNL1        0.0000
     37 H          17.1801    4.4338    7.0812 H       1  UNL1        0.0000
     38 H          16.2514    5.0869    8.4255 H       1  UNL1        0.0000
     39 H          16.6919    3.3738    8.4009 H       1  UNL1        0.0000
     40 C          16.0971    1.7499    5.9384 C.3     1  UNL1        0.0000
     41 H          16.7221    2.0756    5.1041 H       1  UNL1        0.0000
     42 H          16.7323    1.6275    6.8128 H       1  UNL1        0.0000
     43 H          15.6768    0.7781    5.6849 H       1  UNL1        0.0000
     44 C          13.3117    1.9047    4.4186 C.3     1  UNL1        0.0000
     45 H          13.6382    2.2740    3.4439 H       1  UNL1        0.0000
     46 H          13.7206    0.9059    4.5551 H       1  UNL1        0.0000
     47 H          12.2265    1.8299    4.4099 H       1  UNL1        0.0000
     48 C          12.0236    7.2747    7.4245 C.3     1  UNL1        0.0000
     49 H          11.0334    6.8848    7.2287 H       1  UNL1        0.0000
     50 H          11.9121    8.0654    8.1592 H       1  UNL1        0.0000
     51 H          12.3847    7.7343    6.5098 H       1  UNL1        0.0000
@<TRIPOS>BOND
     1    45    44    1
     2    34    31    1
     3    47    44    1
     4    44    46    1
     5    44    30    1
     6    41    40    1
     7    31    32    1
     8    31    33    1
     9    31    28    1
    10    30    28    1
    11    30    35    2
    12    43    40    1
    13    28    27    1
    14    40    35    1
    15    40    42    1
    16    35    29    1
    17    51    48    1
    18    27    29    1
    19    27     1    1
    20    29    36    1
    21    37    36    1
    22    49    48    1
    23    48     1    1
    24    48    50    1
    25    22    10    1
    26    23    10    1
    27    36    39    1
    28    36    38    1
    29    25    11    1
    30     1    11    1
    31     1     2    1
    32    10    21    1
    33    10     6    1
    34    11    24    1
    35    11    26    1
    36     6     2    1
    37     6     5    1
    38     2     3    1
    39    19     9    1
    40     5     9    1
    41     5     4    2
    42     9    20    1
    43     9    18    1
    44     3     4    1
    45     3     7    1
    46    13     7    1
    47     4     8    1
    48    12     7    1
    49     7    14    1
    50    16     8    1
    51     8    17    1
    52     8    15    1
