@<TRIPOS>MOLECULE
2,3,4,5,6,11,12,13,14,15
 57 58 0 0 0
SMALL
GASTEIGER

@<TRIPOS>ATOM
      1 SI          0.0924   11.3025    6.9240 Si      1  UNL1        0.0000
      2 C          -0.5143   12.0659    5.2908 C.3     1  UNL1        0.0000
      3 C          -1.8603   12.4168    4.9629 C.2     1  UNL1        0.0000
      4 C          -1.9859   12.5025    3.5579 C.2     1  UNL1        0.0000
      5 C          -0.7406   12.1630    2.9783 C.3     1  UNL1        0.0000
      6 C           0.1695   11.8654    4.0336 C.3     1  UNL1        0.0000
      7 C          -2.9429   12.8808    5.8928 C.3     1  UNL1        0.0000
      8 C          -3.1955   13.0011    2.8275 C.3     1  UNL1        0.0000
      9 C          -0.4028   12.2665    1.5196 C.3     1  UNL1        0.0000
     10 C           1.6366   11.6307    3.7960 C.3     1  UNL1        0.0000
     11 C          -0.3897    9.5397    6.3962 C.3     1  UNL1        0.0000
     12 C          -1.7634    9.1063    6.2839 C.3     1  UNL1        0.0000
     13 C          -1.7986    7.9388    5.4679 C.3     1  UNL1        0.0000
     14 C          -0.4786    7.6669    5.0371 C.2     1  UNL1        0.0000
     15 C           0.3768    8.6548    5.5762 C.2     1  UNL1        0.0000
     16 C          -2.9634    9.5888    7.0524 C.3     1  UNL1        0.0000
     17 C          -2.9909    7.0539    5.2521 C.3     1  UNL1        0.0000
     18 C          -0.0298    6.4690    4.2565 C.3     1  UNL1        0.0000
     19 C           1.8709    8.5699    5.4614 C.3     1  UNL1        0.0000
     20 C          -0.7151   11.8160    8.5919 C.3     1  UNL1        0.0000
     21 C          -0.5124   10.7434    9.6588 C.3     1  UNL1        0.0000
     22 C           1.9285   11.7329    7.2990 C.3     1  UNL1        0.0000
     23 C           2.1883   13.2295    7.1486 C.3     1  UNL1        0.0000
     24 H          -2.5767   12.9665    6.9100 H       1  UNL1        0.0000
     25 H          -3.2923   13.8652    5.5792 H       1  UNL1        0.0000
     26 H          -3.8034   12.2104    5.8737 H       1  UNL1        0.0000
     27 H          -3.2270   14.0926    2.8510 H       1  UNL1        0.0000
     28 H          -3.1780   12.6854    1.7872 H       1  UNL1        0.0000
     29 H          -4.1085   12.6243    3.2845 H       1  UNL1        0.0000
     30 H          -0.2635   13.3129    1.2401 H       1  UNL1        0.0000
     31 H           0.5105   11.7247    1.2871 H       1  UNL1        0.0000
     32 H          -1.2049   11.8585    0.9048 H       1  UNL1        0.0000
     33 H           2.0997   12.5359    3.3970 H       1  UNL1        0.0000
     34 H           2.1534   11.3658    4.7103 H       1  UNL1        0.0000
     35 H           1.7860   10.8348    3.0626 H       1  UNL1        0.0000
     36 H          -2.7564   10.5094    7.5841 H       1  UNL1        0.0000
     37 H          -3.8109    9.7503    6.3820 H       1  UNL1        0.0000
     38 H          -3.2645    8.8361    7.7845 H       1  UNL1        0.0000
     39 H          -2.9953    6.2448    5.9860 H       1  UNL1        0.0000
     40 H          -2.9690    6.6068    4.2590 H       1  UNL1        0.0000
     41 H          -3.9194    7.6114    5.3523 H       1  UNL1        0.0000
     42 H           0.7857    6.7272    3.5839 H       1  UNL1        0.0000
     43 H          -0.8459    6.0634    3.6632 H       1  UNL1        0.0000
     44 H           0.3192    5.6862    4.9335 H       1  UNL1        0.0000
     45 H           2.1978    7.5629    5.7232 H       1  UNL1        0.0000
     46 H           2.2072    8.7653    4.4422 H       1  UNL1        0.0000
     47 H           2.3563    9.2635    6.1392 H       1  UNL1        0.0000
     48 H          -1.7778   12.0362    8.5269 H       1  UNL1        0.0000
     49 H          -0.2409   12.7379    8.9270 H       1  UNL1        0.0000
     50 H          -0.9420   11.0607   10.6073 H       1  UNL1        0.0000
     51 H           0.5452   10.5494    9.8151 H       1  UNL1        0.0000
     52 H          -0.9846    9.8108    9.3625 H       1  UNL1        0.0000
     53 H           2.6491   11.1981    6.6852 H       1  UNL1        0.0000
     54 H           2.1407   11.4419    8.3273 H       1  UNL1        0.0000
     55 H           1.9950   13.5538    6.1298 H       1  UNL1        0.0000
     56 H           3.2219   13.4654    7.3950 H       1  UNL1        0.0000
     57 H           1.5441   13.8014    7.8108 H       1  UNL1        0.0000
@<TRIPOS>BOND
     1    32     9    1
     2    30     9    1
     3    31     9    1
     4     9     5    1
     5    28     8    1
     6     8    27    1
     7     8    29    1
     8     8     4    1
     9     5     4    1
    10     5     6    1
    11    35    10    1
    12    33    10    1
    13     4     3    2
    14    42    18    1
    15    43    18    1
    16    10     6    1
    17    10    34    1
    18     6     2    1
    19    18    44    1
    20    18    14    1
    21    40    17    1
    22    46    19    1
    23     3     2    1
    24     3     7    1
    25    14    13    1
    26    14    15    2
    27    17    41    1
    28    17    13    1
    29    17    39    1
    30     2     1    1
    31    19    15    1
    32    19    45    1
    33    19    47    1
    34    13    12    1
    35    15    11    1
    36    25     7    1
    37    26     7    1
    38     7    24    1
    39    55    23    1
    40    12    11    1
    41    12    16    1
    42    37    16    1
    43    11     1    1
    44    53    22    1
    45     1    22    1
    46     1    20    1
    47    16    36    1
    48    16    38    1
    49    23    22    1
    50    23    56    1
    51    23    57    1
    52    22    54    1
    53    48    20    1
    54    20    49    1
    55    20    21    1
    56    52    21    1
    57    21    51    1
    58    21    50    1
