@<TRIPOS>MOLECULE
3,4,5,6,11,12,13,14,15
 53 54 0 0 0
SMALL
GASTEIGER

@<TRIPOS>ATOM
      1 SI          4.1866    3.9415    3.5550 Si      1  UNL1        0.0000
      2 C           4.1288    2.1632    4.1969 C.3     1  UNL1        0.0000
      3 C           4.6796    1.0342    3.5030 C.2     1  UNL1        0.0000
      4 C           4.0768   -0.1452    4.0127 C.2     1  UNL1        0.0000
      5 C           3.1130    0.2346    4.9789 C.2     1  UNL1        0.0000
      6 C           3.1138    1.6505    5.0713 C.2     1  UNL1        0.0000
      7 C           5.8639    1.0273    2.5782 C.3     1  UNL1        0.0000
      8 C           4.4923   -1.5505    3.6957 C.3     1  UNL1        0.0000
      9 C           2.3404   -0.6954    5.8649 C.3     1  UNL1        0.0000
     10 C           2.3390    2.4094    6.1108 C.3     1  UNL1        0.0000
     11 C           2.8120    3.6580    2.2822 C.3     1  UNL1        0.0000
     12 C           2.9901    2.9496    1.0455 C.2     1  UNL1        0.0000
     13 C           1.7207    2.5112    0.5896 C.2     1  UNL1        0.0000
     14 C           0.7519    2.8846    1.5528 C.2     1  UNL1        0.0000
     15 C           1.4166    3.5572    2.6104 C.2     1  UNL1        0.0000
     16 C           4.2299    2.8586    0.2018 C.3     1  UNL1        0.0000
     17 C           1.4375    1.9027   -0.7509 C.3     1  UNL1        0.0000
     18 C          -0.7322    2.7302    1.4048 C.3     1  UNL1        0.0000
     19 C           0.6838    4.2295    3.7373 C.3     1  UNL1        0.0000
     20 C           5.8821    4.4725    2.8951 C.2     1  UNL1        0.0000
     21 C           6.0638    5.3525    1.9237 C.2     1  UNL1        0.0000
     22 C           3.8802    5.2555    4.8860 C.2     1  UNL1        0.0000
     23 C           3.3050    6.4263    4.6635 C.2     1  UNL1        0.0000
     24 H           6.1706    2.0370    2.3212 H       1  UNL1        0.0000
     25 H           6.7082    0.5303    3.0601 H       1  UNL1        0.0000
     26 H           5.6416    0.4794    1.6609 H       1  UNL1        0.0000
     27 H           5.2091   -1.9079    4.4381 H       1  UNL1        0.0000
     28 H           3.6351   -2.2221    3.7052 H       1  UNL1        0.0000
     29 H           4.9576   -1.6074    2.7145 H       1  UNL1        0.0000
     30 H           2.9008   -0.8937    6.7812 H       1  UNL1        0.0000
     31 H           2.1597   -1.6463    5.3677 H       1  UNL1        0.0000
     32 H           1.3796   -0.2653    6.1397 H       1  UNL1        0.0000
     33 H           2.6678    2.1114    7.1084 H       1  UNL1        0.0000
     34 H           1.2722    2.1909    6.0403 H       1  UNL1        0.0000
     35 H           2.4884    3.4808    6.0131 H       1  UNL1        0.0000
     36 H           4.4461    1.8213   -0.0604 H       1  UNL1        0.0000
     37 H           5.0900    3.2856    0.7074 H       1  UNL1        0.0000
     38 H           4.0818    3.4057   -0.7313 H       1  UNL1        0.0000
     39 H           2.2761    1.2995   -1.0920 H       1  UNL1        0.0000
     40 H           1.2571    2.6870   -1.4893 H       1  UNL1        0.0000
     41 H           0.5543    1.2682   -0.7108 H       1  UNL1        0.0000
     42 H          -0.9792    1.7852    0.9232 H       1  UNL1        0.0000
     43 H          -1.2262    2.7569    2.3730 H       1  UNL1        0.0000
     44 H          -1.1354    3.5375    0.7895 H       1  UNL1        0.0000
     45 H           0.0022    4.9829    3.3376 H       1  UNL1        0.0000
     46 H           0.0831    3.5090    4.2954 H       1  UNL1        0.0000
     47 H           1.3684    4.7256    4.4177 H       1  UNL1        0.0000
     48 H           6.7508    4.1047    3.4263 H       1  UNL1        0.0000
     49 H           7.0434    5.6944    1.6259 H       1  UNL1        0.0000
     50 H           5.2349    5.7638    1.3719 H       1  UNL1        0.0000
     51 H           4.3033    5.0670    5.8647 H       1  UNL1        0.0000
     52 H           3.2204    7.1855    5.4263 H       1  UNL1        0.0000
     53 H           2.8812    6.6746    3.7045 H       1  UNL1        0.0000
@<TRIPOS>BOND
     1    40    17    1
     2    39    17    1
     3    17    41    1
     4    17    13    1
     5    38    16    1
     6    36    16    1
     7    16    37    1
     8    16    12    1
     9    13    12    2
    10    13    14    1
    11    44    18    1
    12    42    18    1
    13    12    11    1
    14    50    21    1
    15    18    14    1
    16    18    43    1
    17    14    15    2
    18    49    21    1
    19    26     7    1
    20    21    20    2
    21    11    15    1
    22    11     1    1
    23    24     7    1
    24     7    25    1
    25     7     3    1
    26    15    19    1
    27    29     8    1
    28    20    48    1
    29    20     1    1
    30    45    19    1
    31     3     4    2
    32     3     2    1
    33     1     2    1
    34     1    22    1
    35     8    28    1
    36     8     4    1
    37     8    27    1
    38    53    23    1
    39    19    46    1
    40    19    47    1
    41     4     5    1
    42     2     6    1
    43    23    22    2
    44    23    52    1
    45    22    51    1
    46     5     6    2
    47     5     9    1
    48     6    10    1
    49    31     9    1
    50     9    32    1
    51     9    30    1
    52    35    10    1
    53    34    10    1
    54    10    33    1
