@<TRIPOS>MOLECULE
2,3,5,6,25,37,38,40,41,60
 79 86 0 0 0
SMALL
GASTEIGER

@<TRIPOS>ATOM
      1 SI          1.4113    0.7091    2.7150 Si      1  UNL1        0.0000
      2 C          -0.2356    0.7853    1.7543 C.2     1  UNL1        0.0000
      3 C          -0.6086    2.0610    1.2516 C.2     1  UNL1        0.0000
      4 H           0.0842    2.8417    0.9591 H       1  UNL1        0.0000
      5 C          -2.0105    2.1785    1.1295 C.2     1  UNL1        0.0000
      6 C          -2.5673    0.9243    1.5615 C.2     1  UNL1        0.0000
      7 C          -3.8913    0.4431    1.5729 C.3     1  UNL1        0.0000
      8 H          -4.7090    1.0815    1.2688 H       1  UNL1        0.0000
      9 C          -4.1108   -0.8595    1.9282 C.2     1  UNL1        0.0000
     10 H          -5.1191   -1.2456    1.9550 H       1  UNL1        0.0000
     11 C          -3.0511   -1.7526    2.1974 C.2     1  UNL1        0.0000
     12 C          -3.4252   -3.1888    2.4583 C.3     1  UNL1        0.0000
     13 H          -3.8437   -3.6061    1.5364 H       1  UNL1        0.0000
     14 H          -4.2175   -3.2198    3.2108 H       1  UNL1        0.0000
     15 C          -2.2434   -4.0406    2.9032 C.3     1  UNL1        0.0000
     16 H          -2.5112   -5.0976    2.8593 H       1  UNL1        0.0000
     17 H          -1.9806   -3.8037    3.9371 H       1  UNL1        0.0000
     18 C          -1.0564   -3.7435    1.9971 C.3     1  UNL1        0.0000
     19 H          -1.3562   -3.8670    0.9548 H       1  UNL1        0.0000
     20 H          -0.2328   -4.4312    2.1973 H       1  UNL1        0.0000
     21 C          -0.5982   -2.3101    2.2411 C.3     1  UNL1        0.0000
     22 H          -0.1310   -2.2679    3.2280 H       1  UNL1        0.0000
     23 H           0.1601   -2.0229    1.5101 H       1  UNL1        0.0000
     24 C          -1.7364   -1.3279    2.1552 C.2     1  UNL1        0.0000
     25 C          -1.4678    0.0475    1.9188 C.2     1  UNL1        0.0000
     26 C          -2.7220    3.3485    0.6082 C.ar    1  UNL1        0.0000
     27 C          -3.8947    3.8070    1.2135 C.ar    1  UNL1        0.0000
     28 H          -4.2784    3.3079    2.0952 H       1  UNL1        0.0000
     29 C          -4.5440    4.9221    0.7180 C.ar    1  UNL1        0.0000
     30 H          -5.4448    5.2730    1.2001 H       1  UNL1        0.0000
     31 C          -4.0398    5.5980   -0.3814 C.ar    1  UNL1        0.0000
     32 H          -4.5493    6.4706   -0.7625 H       1  UNL1        0.0000
     33 C          -2.8745    5.1547   -0.9836 C.ar    1  UNL1        0.0000
     34 H          -2.4736    5.6803   -1.8382 H       1  UNL1        0.0000
     35 C          -2.2197    4.0404   -0.4947 C.ar    1  UNL1        0.0000
     36 H          -1.3162    3.6909   -0.9738 H       1  UNL1        0.0000
     37 C           0.6039    1.2150    4.3633 C.3     1  UNL1        0.0000
     38 C          -0.4001    0.3004    4.8082 C.3     1  UNL1        0.0000
     39 H          -0.4181   -0.7563    4.5744 H       1  UNL1        0.0000
     40 C          -1.2547    0.8975    5.7542 C.3     1  UNL1        0.0000
     41 C          -0.7885    2.2429    5.9374 C.ar    1  UNL1        0.0000
     42 C          -1.2835    3.3051    6.7147 C.ar    1  UNL1        0.0000
     43 H          -2.1864    3.1817    7.2978 H       1  UNL1        0.0000
     44 C          -0.5914    4.4865    6.7234 C.ar    1  UNL1        0.0000
     45 H          -0.9519    5.3130    7.3186 H       1  UNL1        0.0000
     46 C           0.5917    4.6689    5.9788 C.ar    1  UNL1        0.0000
     47 C           1.2965    5.9926    6.1070 C.3     1  UNL1        0.0000
     48 H           1.8428    6.0040    7.0570 H       1  UNL1        0.0000
     49 H           0.5518    6.7901    6.1522 H       1  UNL1        0.0000
     50 C           2.2672    6.2485    4.9614 C.3     1  UNL1        0.0000
     51 H           1.7046    6.4237    4.0424 H       1  UNL1        0.0000
     52 H           2.8646    7.1377    5.1715 H       1  UNL1        0.0000
     53 C           3.1589    5.0277    4.7815 C.3     1  UNL1        0.0000
     54 H           3.6408    4.7859    5.7314 H       1  UNL1        0.0000
     55 H           3.9415    5.2254    4.0462 H       1  UNL1        0.0000
     56 C           2.3042    3.8537    4.3196 C.3     1  UNL1        0.0000
     57 H           1.9694    4.0423    3.2943 H       1  UNL1        0.0000
     58 H           2.8898    2.9318    4.3222 H       1  UNL1        0.0000
     59 C           1.0774    3.6640    5.1656 C.ar    1  UNL1        0.0000
     60 C           0.3734    2.4369    5.0982 C.ar    1  UNL1        0.0000
     61 C          -2.3699    0.2177    6.4130 C.ar    1  UNL1        0.0000
     62 C          -2.6483    0.3919    7.7676 C.ar    1  UNL1        0.0000
     63 H          -2.0182    1.0385    8.3604 H       1  UNL1        0.0000
     64 C          -3.7091   -0.2731    8.3547 C.ar    1  UNL1        0.0000
     65 H          -3.9166   -0.1277    9.4048 H       1  UNL1        0.0000
     66 C          -4.5034   -1.1228    7.6038 C.ar    1  UNL1        0.0000
     67 H          -5.3343   -1.6363    8.0641 H       1  UNL1        0.0000
     68 C          -4.2315   -1.3076    6.2572 C.ar    1  UNL1        0.0000
     69 H          -4.8549   -1.9625    5.6662 H       1  UNL1        0.0000
     70 C          -3.1752   -0.6456    5.6635 C.ar    1  UNL1        0.0000
     71 H          -2.9852   -0.7664    4.5999 H       1  UNL1        0.0000
     72 C           2.6562    1.7864    1.7482 C.3     1  UNL1        0.0000
     73 H           3.5989    1.8689    2.2764 H       1  UNL1        0.0000
     74 H           2.3052    2.7890    1.5388 H       1  UNL1        0.0000
     75 H           2.8626    1.3070    0.7961 H       1  UNL1        0.0000
     76 C           2.3616   -0.9297    2.9772 C.3     1  UNL1        0.0000
     77 H           3.3740   -0.6969    3.2913 H       1  UNL1        0.0000
     78 H           2.4357   -1.5053    2.0616 H       1  UNL1        0.0000
     79 H           1.9304   -1.5651    3.7409 H       1  UNL1        0.0000
@<TRIPOS>BOND
     1    34    33    1
     2    33    35   ar
     3    33    31   ar
     4    36    35    1
     5    32    31    1
     6    35    26   ar
     7    31    29   ar
     8    26     5    1
     9    26    27   ar
    10    29    30    1
    11    29    27   ar
    12    75    72    1
    13    19    18    1
    14     4     3    1
    15     5     3    1
    16     5     6    2
    17    27    28    1
    18     3     2    2
    19     8     7    1
    20    23    21    1
    21    13    12    1
    22    74    72    1
    23     6     7    1
    24     6    25    1
    25     7     9    1
    26    72    73    1
    27    72     1    1
    28     2    25    1
    29     2     1    1
    30    25    24    2
    31     9    10    1
    32     9    11    2
    33    18    20    1
    34    18    21    1
    35    18    15    1
    36    78    76    1
    37    24    11    1
    38    24    21    1
    39    11    12    1
    40    21    22    1
    41    12    15    1
    42    12    14    1
    43     1    76    1
    44     1    37    1
    45    16    15    1
    46    15    17    1
    47    76    77    1
    48    76    79    1
    49    57    56    1
    50    51    50    1
    51    55    53    1
    52    56    58    1
    53    56    53    1
    54    56    59    1
    55    37    38    1
    56    37    60    1
    57    39    38    1
    58    71    70    1
    59    53    50    1
    60    53    54    1
    61    38    40    1
    62    50    52    1
    63    50    47    1
    64    60    59   ar
    65    60    41   ar
    66    59    46   ar
    67    70    68   ar
    68    70    61   ar
    69    69    68    1
    70    40    41    1
    71    40    61    1
    72    41    42   ar
    73    46    47    1
    74    46    44   ar
    75    47    49    1
    76    47    48    1
    77    68    66   ar
    78    61    62   ar
    79    42    44   ar
    80    42    43    1
    81    44    45    1
    82    66    67    1
    83    66    64   ar
    84    62    64   ar
    85    62    63    1
    86    64    65    1
