@<TRIPOS>MOLECULE
2,3,4,5,6,31,32,33,34,35
 51 52 0 0 0
SMALL
GASTEIGER

@<TRIPOS>ATOM
      1 SI         14.0140    4.1383   11.1444 Si      1  UNL1        0.0000
      2 C          12.2366    3.4769   11.0777 C.3     1  UNL1        0.0000
      3 C          11.6009    2.7848   12.1638 C.2     1  UNL1        0.0000
      4 C          10.6440    1.8974   11.6352 C.2     1  UNL1        0.0000
      5 C          10.6635    2.0292   10.1985 C.2     1  UNL1        0.0000
      6 C          11.6323    2.9935    9.8675 C.2     1  UNL1        0.0000
      7 C          11.7068    3.0814   13.6242 C.3     1  UNL1        0.0000
      8 H          10.7841    3.5486   13.9748 H       1  UNL1        0.0000
      9 H          11.8483    2.1663   14.1969 H       1  UNL1        0.0000
     10 H          12.5251    3.7575   13.8372 H       1  UNL1        0.0000
     11 C           9.6098    1.1573   12.4242 C.3     1  UNL1        0.0000
     12 H           8.7386    1.7944   12.5929 H       1  UNL1        0.0000
     13 H           9.2796    0.2644   11.8977 H       1  UNL1        0.0000
     14 H          10.0042    0.8576   13.3923 H       1  UNL1        0.0000
     15 C           9.6605    1.4400    9.2573 C.3     1  UNL1        0.0000
     16 H           8.7878    2.0928    9.1806 H       1  UNL1        0.0000
     17 H          10.0865    1.3240    8.2635 H       1  UNL1        0.0000
     18 H           9.3244    0.4646    9.6023 H       1  UNL1        0.0000
     19 C          11.7840    3.5528    8.4904 C.3     1  UNL1        0.0000
     20 H          10.8554    4.0401    8.1862 H       1  UNL1        0.0000
     21 H          12.5776    4.2880    8.4446 H       1  UNL1        0.0000
     22 H          11.9907    2.7643    7.7686 H       1  UNL1        0.0000
     23 C          14.5414    5.3962    9.8009 C.3     1  UNL1        0.0000
     24 H          14.4774    5.0569    8.7753 H       1  UNL1        0.0000
     25 H          13.9300    6.2893    9.8861 H       1  UNL1        0.0000
     26 H          15.5710    5.6906    9.9784 H       1  UNL1        0.0000
     27 C          14.5495    5.1422   12.6844 C.3     1  UNL1        0.0000
     28 H          14.1474    6.1474   12.6072 H       1  UNL1        0.0000
     29 H          14.2423    4.7473   13.6439 H       1  UNL1        0.0000
     30 H          15.6319    5.2268   12.6991 H       1  UNL1        0.0000
     31 C          14.6524    2.3574   10.9991 C.3     1  UNL1        0.0000
     32 C          14.5935    1.4197   12.0855 C.2     1  UNL1        0.0000
     33 C          14.5063    0.1191   11.5574 C.2     1  UNL1        0.0000
     34 C          14.5143    0.2252   10.1184 C.2     1  UNL1        0.0000
     35 C          14.6084    1.5902    9.7860 C.2     1  UNL1        0.0000
     36 C          14.8295    1.6946   13.5351 C.3     1  UNL1        0.0000
     37 H          15.7737    1.2432   13.8468 H       1  UNL1        0.0000
     38 H          14.8858    2.7576   13.7341 H       1  UNL1        0.0000
     39 H          14.0419    1.2613   14.1492 H       1  UNL1        0.0000
     40 C          14.6421   -1.1508   12.3371 C.3     1  UNL1        0.0000
     41 H          15.6968   -1.4138   12.4469 H       1  UNL1        0.0000
     42 H          14.2141   -1.0402   13.3307 H       1  UNL1        0.0000
     43 H          14.1381   -1.9745   11.8363 H       1  UNL1        0.0000
     44 C          14.6704   -0.9174    9.1645 C.3     1  UNL1        0.0000
     45 H          15.7289   -1.1501    9.0267 H       1  UNL1        0.0000
     46 H          14.1731   -1.8102    9.5371 H       1  UNL1        0.0000
     47 H          14.2477   -0.6697    8.1936 H       1  UNL1        0.0000
     48 C          14.8642    2.0666    8.3933 C.3     1  UNL1        0.0000
     49 H          15.8283    1.6902    8.0449 H       1  UNL1        0.0000
     50 H          14.1021    1.6966    7.7093 H       1  UNL1        0.0000
     51 H          14.8886    3.1477    8.3389 H       1  UNL1        0.0000
@<TRIPOS>BOND
     1    50    48    1
     2    22    19    1
     3    49    48    1
     4    20    19    1
     5    47    44    1
     6    17    15    1
     7    51    48    1
     8    48    35    1
     9    21    19    1
    10    19     6    1
    11    24    23    1
    12    45    44    1
    13    44    46    1
    14    44    34    1
    15    16    15    1
    16    15    18    1
    17    15     5    1
    18    35    34    2
    19    35    31    1
    20    23    25    1
    21    23    26    1
    22    23     1    1
    23     6     5    2
    24     6     2    1
    25    34    33    1
    26     5     4    1
    27    31     1    1
    28    31    32    1
    29     2     1    1
    30     2     3    1
    31     1    27    1
    32    33    32    2
    33    33    40    1
    34     4     3    2
    35     4    11    1
    36    43    40    1
    37    13    11    1
    38    32    36    1
    39     3     7    1
    40    40    41    1
    41    40    42    1
    42    11    12    1
    43    11    14    1
    44    28    27    1
    45    27    30    1
    46    27    29    1
    47    36    38    1
    48    36    37    1
    49    36    39    1
    50     7    10    1
    51     7     8    1
    52     7     9    1
