@<TRIPOS>MOLECULE
4,5,6,7,8,10,11,12,13
 53 56 0 0 0
SMALL
GASTEIGER

@<TRIPOS>ATOM
      1 SI          3.1814   -0.9769    2.2902 Si      1  UNL1        0.0000
      2 O           2.9347    0.1274   -1.0009 O.2     1  UNL1        0.0000
      3 O           2.7720   -1.5407    5.6194 O.2     1  UNL1        0.0000
      4 C           1.5987   -0.0505    1.7510 C.3     1  UNL1        0.0000
      5 C           1.5868    1.0350    0.7992 C.3     1  UNL1        0.0000
      6 C           0.4035    1.8079    0.9939 C.2     1  UNL1        0.0000
      7 C          -0.2941    1.2349    2.0736 C.2     1  UNL1        0.0000
      8 C           0.4345    0.1206    2.5600 C.3     1  UNL1        0.0000
      9 C           3.7114    0.4174    3.4856 C.3     1  UNL1        0.0000
     10 C           3.0968    0.7033    4.7620 C.3     1  UNL1        0.0000
     11 C           3.4173    2.0424    5.1379 C.2     1  UNL1        0.0000
     12 C           4.1779    2.5967    4.0920 C.2     1  UNL1        0.0000
     13 C           4.3454    1.6289    3.0729 C.3     1  UNL1        0.0000
     14 C           2.4778    1.2134   -0.3318 C.ar    1  UNL1        0.0000
     15 C           2.9263    2.3576   -0.9475 C.ar    1  UNL1        0.0000
     16 C           3.7103    1.9332   -2.0461 C.ar    1  UNL1        0.0000
     17 C           3.6776    0.5734   -2.0295 C.ar    1  UNL1        0.0000
     18 C          -0.0968    2.9271    0.1301 C.3     1  UNL1        0.0000
     19 C          -0.1011   -0.7589    3.6540 C.3     1  UNL1        0.0000
     20 C           2.4192   -0.2323    5.6355 C.ar    1  UNL1        0.0000
     21 C           1.4457   -0.0290    6.5844 C.ar    1  UNL1        0.0000
     22 C           1.1924   -1.2922    7.1680 C.ar    1  UNL1        0.0000
     23 C           2.0250   -2.1696    6.5463 C.ar    1  UNL1        0.0000
     24 C           3.1539    2.7025    6.4581 C.3     1  UNL1        0.0000
     25 C           5.1755    1.8800    1.8456 C.3     1  UNL1        0.0000
     26 C           4.5359   -1.3212    0.9881 C.3     1  UNL1        0.0000
     27 C           2.8663   -2.7433    2.9474 C.3     1  UNL1        0.0000
     28 H          -1.2778    1.5356    2.4164 H       1  UNL1        0.0000
     29 H           4.6429    3.5759    4.1075 H       1  UNL1        0.0000
     30 H           2.7493    3.3645   -0.6253 H       1  UNL1        0.0000
     31 H           4.2241    2.5569   -2.7483 H       1  UNL1        0.0000
     32 H           4.1241   -0.1639   -2.6662 H       1  UNL1        0.0000
     33 H           0.3095    3.8888    0.4516 H       1  UNL1        0.0000
     34 H           0.1977    2.7659   -0.9064 H       1  UNL1        0.0000
     35 H          -1.1829    2.9828    0.1861 H       1  UNL1        0.0000
     36 H          -0.5184   -0.1454    4.4565 H       1  UNL1        0.0000
     37 H          -0.9026   -1.3912    3.2649 H       1  UNL1        0.0000
     38 H           0.6618   -1.4085    4.0693 H       1  UNL1        0.0000
     39 H           0.9483    0.8948    6.8011 H       1  UNL1        0.0000
     40 H           0.4879   -1.5130    7.9433 H       1  UNL1        0.0000
     41 H           2.1787   -3.2235    6.6646 H       1  UNL1        0.0000
     42 H           3.8884    3.4876    6.6315 H       1  UNL1        0.0000
     43 H           2.1609    3.1561    6.4873 H       1  UNL1        0.0000
     44 H           3.2177    1.9731    7.2650 H       1  UNL1        0.0000
     45 H           6.0099    1.1805    1.7948 H       1  UNL1        0.0000
     46 H           4.5888    1.7930    0.9288 H       1  UNL1        0.0000
     47 H           5.5801    2.8909    1.8840 H       1  UNL1        0.0000
     48 H           5.3789   -1.8056    1.4714 H       1  UNL1        0.0000
     49 H           4.1527   -2.0044    0.2383 H       1  UNL1        0.0000
     50 H           4.9088   -0.4483    0.4717 H       1  UNL1        0.0000
     51 H           1.9510   -2.8728    3.5086 H       1  UNL1        0.0000
     52 H           2.8299   -3.4283    2.1067 H       1  UNL1        0.0000
     53 H           3.6873   -3.0496    3.5856 H       1  UNL1        0.0000
@<TRIPOS>BOND
     1    31    16    1
     2    32    17    1
     3    16    17   ar
     4    16    15   ar
     5    17     2   ar
     6     2    14   ar
     7    15    30    1
     8    15    14   ar
     9    34    18    1
    10    14     5    1
    11    18    35    1
    12    18    33    1
    13    18     6    1
    14    49    26    1
    15    50    26    1
    16     5     6    1
    17     5     4    1
    18    46    25    1
    19    26    48    1
    20    26     1    1
    21     6     7    2
    22     4     1    1
    23     4     8    1
    24    45    25    1
    25    25    47    1
    26    25    13    1
    27     7    28    1
    28     7     8    1
    29    52    27    1
    30     1    27    1
    31     1     9    1
    32     8    19    1
    33    27    51    1
    34    27    53    1
    35    13     9    1
    36    13    12    1
    37    37    19    1
    38     9    10    1
    39    19    38    1
    40    19    36    1
    41    12    29    1
    42    12    11    2
    43    10    11    1
    44    10    20    1
    45    11    24    1
    46     3    20   ar
    47     3    23   ar
    48    20    21   ar
    49    24    43    1
    50    24    42    1
    51    24    44    1
    52    23    41    1
    53    23    22   ar
    54    21    39    1
    55    21    22   ar
    56    22    40    1
