@<TRIPOS>MOLECULE
1,2,3,4,5,6,7,8,9,10
 34 36 0 0 0
SMALL
GASTEIGER

@<TRIPOS>ATOM
      1 C           7.4417    0.3599   13.1449 C.3     1  UNL1        0.0000
      2 C           6.0970   -0.0345   13.4349 C.3     1  UNL1        0.0000
      3 C           5.7966    0.4171   14.7384 C.2     1  UNL1        0.0000
      4 C           6.9290    1.0657   15.2637 C.2     1  UNL1        0.0000
      5 C           7.9326    1.0439   14.2786 C.3     1  UNL1        0.0000
      6 C           6.5896    1.6763   10.9622 C.3     1  UNL1        0.0000
      7 C           5.2467    1.2701   11.2441 C.3     1  UNL1        0.0000
      8 C           4.4642    2.4419   11.3373 C.2     1  UNL1        0.0000
      9 C           5.2894    3.5569   11.1047 C.2     1  UNL1        0.0000
     10 C           6.5977    3.0864   10.8904 C.3     1  UNL1        0.0000
     11 SI          8.0643    0.5680   11.3712 Si      1  UNL1        0.0000
     12 C           8.3106   -0.9875   10.2922 C.3     1  UNL1        0.0000
     13 C           9.7058    1.5488   11.3439 C.3     1  UNL1        0.0000
     14 SI          4.8524   -0.3906   12.0586 Si      1  UNL1        0.0000
     15 C           3.0602   -0.4071   12.7255 C.3     1  UNL1        0.0000
     16 C           5.1015   -1.9934   11.0515 C.3     1  UNL1        0.0000
     17 H           4.8884    0.1989   15.2865 H       1  UNL1        0.0000
     18 H           7.0361    1.4422   16.2734 H       1  UNL1        0.0000
     19 H           8.9493    1.3919   14.4129 H       1  UNL1        0.0000
     20 H           3.3880    2.4730   11.4537 H       1  UNL1        0.0000
     21 H           4.9614    4.5858   11.0243 H       1  UNL1        0.0000
     22 H           7.4445    3.6969   10.6020 H       1  UNL1        0.0000
     23 H           7.4476   -1.1967    9.6731 H       1  UNL1        0.0000
     24 H           8.5107   -1.8632   10.8996 H       1  UNL1        0.0000
     25 H           9.1616   -0.8445    9.6354 H       1  UNL1        0.0000
     26 H           9.6581    2.4500   11.9475 H       1  UNL1        0.0000
     27 H           9.9585    1.8395   10.3295 H       1  UNL1        0.0000
     28 H          10.5199    0.9377   11.7192 H       1  UNL1        0.0000
     29 H           2.8970   -1.2754   13.3554 H       1  UNL1        0.0000
     30 H           2.3500   -0.4614   11.9070 H       1  UNL1        0.0000
     31 H           2.8293    0.4779   13.3105 H       1  UNL1        0.0000
     32 H           4.3237   -2.7062   11.3024 H       1  UNL1        0.0000
     33 H           6.0562   -2.4608   11.2576 H       1  UNL1        0.0000
     34 H           5.0404   -1.8060    9.9852 H       1  UNL1        0.0000
@<TRIPOS>BOND
     1    25    12    1
     2    23    12    1
     3    34    16    1
     4    12    24    1
     5    12    11    1
     6    27    13    1
     7    22    10    1
     8    10     6    1
     9    10     9    1
    10     6     7    1
    11     6    11    1
    12    21     9    1
    13    16    33    1
    14    16    32    1
    15    16    14    1
    16     9     8    2
    17     7     8    1
    18     7    14    1
    19     8    20    1
    20    13    11    1
    21    13    28    1
    22    13    26    1
    23    11     1    1
    24    30    15    1
    25    14    15    1
    26    14     2    1
    27    15    31    1
    28    15    29    1
    29     1     2    1
    30     1     5    1
    31     2     3    1
    32     5    19    1
    33     5     4    1
    34     3     4    2
    35     3    17    1
    36     4    18    1
