@<TRIPOS>MOLECULE
2,7,12,17,22,23,28,33,38,43
 51 52 0 0 0
SMALL
GASTEIGER

@<TRIPOS>ATOM
      1 SI         -0.8011   -0.3466    3.8830 Si      1  UNL1        0.0000
      2 C           1.4704    0.9521    5.2320 C.3     1  UNL1        0.0000
      3 C           2.3207   -0.2561    5.4838 C.3     1  UNL1        0.0000
      4 H           1.7849   -1.1731    5.2683 H       1  UNL1        0.0000
      5 H           2.6157   -0.2753    6.5351 H       1  UNL1        0.0000
      6 H           3.2336   -0.2213    4.8872 H       1  UNL1        0.0000
      7 C           1.8947    2.2576    5.5897 C.2     1  UNL1        0.0000
      8 C           3.2145    2.6145    6.1969 C.3     1  UNL1        0.0000
      9 H           3.9943    1.9304    5.8695 H       1  UNL1        0.0000
     10 H           3.1424    2.5654    7.2864 H       1  UNL1        0.0000
     11 H           3.5078    3.6264    5.9203 H       1  UNL1        0.0000
     12 C           0.8037    3.1344    5.4200 C.2     1  UNL1        0.0000
     13 C           0.7787    4.5733    5.8308 C.3     1  UNL1        0.0000
     14 H          -0.0109    5.1166    5.3171 H       1  UNL1        0.0000
     15 H           1.7289    5.0569    5.6056 H       1  UNL1        0.0000
     16 H           0.6065    4.6439    6.9078 H       1  UNL1        0.0000
     17 C          -0.3043    2.3758    4.9545 C.3     1  UNL1        0.0000
     18 C          -1.6801    2.9650    4.8687 C.3     1  UNL1        0.0000
     19 H          -2.4052    2.2472    4.5048 H       1  UNL1        0.0000
     20 H          -1.6831    3.8381    4.2140 H       1  UNL1        0.0000
     21 H          -1.9965    3.2936    5.8614 H       1  UNL1        0.0000
     22 C           0.0810    0.9970    4.8977 C.3     1  UNL1        0.0000
     23 C           1.3527    0.2394    1.9271 C.3     1  UNL1        0.0000
     24 C           2.2689   -0.9232    2.1641 C.3     1  UNL1        0.0000
     25 H           1.8677   -1.6109    2.8986 H       1  UNL1        0.0000
     26 H           3.2487   -0.5771    2.4974 H       1  UNL1        0.0000
     27 H           2.4108   -1.4697    1.2288 H       1  UNL1        0.0000
     28 C           1.6704    1.2602    0.9908 C.2     1  UNL1        0.0000
     29 C           2.9193    1.3485    0.1711 C.3     1  UNL1        0.0000
     30 H           3.7554    0.8666    0.6727 H       1  UNL1        0.0000
     31 H           3.1863    2.3880   -0.0172 H       1  UNL1        0.0000
     32 H           2.7607    0.8569   -0.7921 H       1  UNL1        0.0000
     33 C           0.5364    2.0844    0.8397 C.2     1  UNL1        0.0000
     34 C           0.3904    3.1934   -0.1537 C.3     1  UNL1        0.0000
     35 H          -0.3684    3.9057    0.1629 H       1  UNL1        0.0000
     36 H           0.0993    2.7817   -1.1234 H       1  UNL1        0.0000
     37 H           1.3309    3.7282   -0.2793 H       1  UNL1        0.0000
     38 C          -0.4895    1.5803    1.6796 C.3     1  UNL1        0.0000
     39 C          -1.8954    2.0955    1.6116 C.3     1  UNL1        0.0000
     40 H          -2.5656    1.5094    2.2296 H       1  UNL1        0.0000
     41 H          -2.2495    2.0382    0.5801 H       1  UNL1        0.0000
     42 H          -1.9428    3.1418    1.9174 H       1  UNL1        0.0000
     43 C          -0.0182    0.3890    2.3147 C.3     1  UNL1        0.0000
     44 C          -0.4229   -2.1755    4.3134 C.3     1  UNL1        0.0000
     45 H           0.5719   -2.5302    4.0760 H       1  UNL1        0.0000
     46 H          -1.1223   -2.8099    3.7782 H       1  UNL1        0.0000
     47 H          -0.5858   -2.3394    5.3744 H       1  UNL1        0.0000
     48 C          -2.7140   -0.4336    3.9635 C.3     1  UNL1        0.0000
     49 H          -3.2367    0.5111    4.0396 H       1  UNL1        0.0000
     50 H          -2.9986   -1.0240    4.8285 H       1  UNL1        0.0000
     51 H          -3.0911   -0.9475    3.0846 H       1  UNL1        0.0000
@<TRIPOS>BOND
     1    36    34    1
     2    32    29    1
     3    37    34    1
     4    34    35    1
     5    34    33    1
     6    31    29    1
     7    29    30    1
     8    29    28    1
     9    41    39    1
    10    33    28    2
    11    33    38    1
    12    28    23    1
    13    27    24    1
    14    39    38    1
    15    39    42    1
    16    39    40    1
    17    38    43    1
    18    23    24    1
    19    23    43    1
    20    24    26    1
    21    24    25    1
    22    43     1    1
    23    51    48    1
    24    46    44    1
    25     1    48    1
    26     1    44    1
    27     1    22    1
    28    48    49    1
    29    48    50    1
    30    45    44    1
    31    20    18    1
    32    44    47    1
    33    19    18    1
    34    18    17    1
    35    18    21    1
    36     6     3    1
    37    22    17    1
    38    22     2    1
    39    17    12    1
    40     2     3    1
    41     2     7    1
    42     4     3    1
    43    14    13    1
    44    12     7    2
    45    12    13    1
    46     3     5    1
    47     7     8    1
    48    15    13    1
    49    13    16    1
    50     9     8    1
    51    11     8    1
    52     8    10    1
