@<TRIPOS>MOLECULE
2,3,8,9,10,17,18,19,20,21
 75 79 0 0 0
SMALL
GASTEIGER

@<TRIPOS>ATOM
      1 SI          5.1575    0.1705    2.2354 Si      1  UNL1        0.0000
      2 C           3.7260   -0.8249    1.4950 C.3     1  UNL1        0.0000
      3 C           2.9040   -0.3692    0.4099 C.3     1  UNL1        0.0000
      4 C           3.2554    0.5547   -0.7273 C.3     1  UNL1        0.0000
      5 C           2.4435    0.1642   -1.9666 C.3     1  UNL1        0.0000
      6 C           0.9556    0.1131   -1.6246 C.3     1  UNL1        0.0000
      7 C           0.6646   -1.0504   -0.6740 C.3     1  UNL1        0.0000
      8 C           1.6811   -1.0834    0.4321 C.3     1  UNL1        0.0000
      9 C           1.7035   -1.9550    1.5534 C.2     1  UNL1        0.0000
     10 C           2.9421   -1.7810    2.2148 C.2     1  UNL1        0.0000
     11 C           3.3401   -2.6555    3.3718 C.3     1  UNL1        0.0000
     12 C           2.6051   -3.9952    3.2476 C.3     1  UNL1        0.0000
     13 C           1.0963   -3.7717    3.1687 C.3     1  UNL1        0.0000
     14 C           0.7079   -3.0319    1.8828 C.3     1  UNL1        0.0000
     15 C           6.1948   -0.7128    3.5694 C.3     1  UNL1        0.0000
     16 C           6.3596    0.9224    0.9585 C.3     1  UNL1        0.0000
     17 C           3.9911    1.4494    2.9929 C.3     1  UNL1        0.0000
     18 C           3.3054    2.4283    2.2255 C.2     1  UNL1        0.0000
     19 C           2.2017    2.8959    2.9646 C.2     1  UNL1        0.0000
     20 C           2.1508    2.1848    4.1880 C.3     1  UNL1        0.0000
     21 C           3.2384    1.2723    4.1905 C.3     1  UNL1        0.0000
     22 C           1.1816    2.4283    5.3153 C.3     1  UNL1        0.0000
     23 C           1.5891    3.6501    6.1706 C.3     1  UNL1        0.0000
     24 C           0.5775    3.8083    7.3075 C.3     1  UNL1        0.0000
     25 C          -0.8358    4.0013    6.7663 C.3     1  UNL1        0.0000
     26 C          -1.2503    2.8150    5.8973 C.3     1  UNL1        0.0000
     27 C          -0.2366    2.6456    4.7674 C.3     1  UNL1        0.0000
     28 C           3.0490    3.5683    6.6606 C.3     1  UNL1        0.0000
     29 C           3.5391    4.9230    7.1725 C.3     1  UNL1        0.0000
     30 C           3.2743    2.5018    7.7311 C.3     1  UNL1        0.0000
     31 C          -2.6557    3.0053    5.3351 C.3     1  UNL1        0.0000
     32 H           3.0159    1.5983   -0.4753 H       1  UNL1        0.0000
     33 H           4.3236    0.4952   -0.9463 H       1  UNL1        0.0000
     34 H           2.6204    0.8877   -2.7647 H       1  UNL1        0.0000
     35 H           2.7690   -0.8171   -2.3195 H       1  UNL1        0.0000
     36 H           0.6614    1.0512   -1.1456 H       1  UNL1        0.0000
     37 H           0.3643   -0.0017   -2.5347 H       1  UNL1        0.0000
     38 H          -0.3491   -0.9606   -0.2698 H       1  UNL1        0.0000
     39 H           0.7149   -1.9978   -1.2259 H       1  UNL1        0.0000
     40 H           4.4188   -2.8224    3.3673 H       1  UNL1        0.0000
     41 H           3.0662   -2.1865    4.3279 H       1  UNL1        0.0000
     42 H           2.9472   -4.5081    2.3455 H       1  UNL1        0.0000
     43 H           2.8397   -4.6253    4.1074 H       1  UNL1        0.0000
     44 H           0.5751   -4.7302    3.2051 H       1  UNL1        0.0000
     45 H           0.7824   -3.1853    4.0331 H       1  UNL1        0.0000
     46 H          -0.2982   -2.6084    1.9878 H       1  UNL1        0.0000
     47 H           0.6771   -3.7407    1.0456 H       1  UNL1        0.0000
     48 H           5.6059   -1.0073    4.4306 H       1  UNL1        0.0000
     49 H           6.6743   -1.5993    3.1690 H       1  UNL1        0.0000
     50 H           6.9792   -0.0501    3.9193 H       1  UNL1        0.0000
     51 H           6.7234    0.1668    0.2705 H       1  UNL1        0.0000
     52 H           5.9075    1.7168    0.3759 H       1  UNL1        0.0000
     53 H           7.2210    1.3417    1.4668 H       1  UNL1        0.0000
     54 H           3.6726    2.8726    1.3084 H       1  UNL1        0.0000
     55 H           1.5659    3.7247    2.6809 H       1  UNL1        0.0000
     56 H           3.5269    0.6450    5.0287 H       1  UNL1        0.0000
     57 H           1.1651    1.5414    5.9612 H       1  UNL1        0.0000
     58 H           1.5211    4.5347    5.5258 H       1  UNL1        0.0000
     59 H           0.5927    2.9167    7.9363 H       1  UNL1        0.0000
     60 H           0.8457    4.6652    7.9275 H       1  UNL1        0.0000
     61 H          -1.5352    4.1146    7.5979 H       1  UNL1        0.0000
     62 H          -0.8781    4.9164    6.1700 H       1  UNL1        0.0000
     63 H          -1.2402    1.9079    6.5120 H       1  UNL1        0.0000
     64 H          -0.2577    3.5417    4.1417 H       1  UNL1        0.0000
     65 H          -0.5251    1.7915    4.1440 H       1  UNL1        0.0000
     66 H           3.6617    3.3093    5.7900 H       1  UNL1        0.0000
     67 H           4.5984    4.8698    7.4144 H       1  UNL1        0.0000
     68 H           3.4004    5.6935    6.4175 H       1  UNL1        0.0000
     69 H           3.0044    5.2206    8.0714 H       1  UNL1        0.0000
     70 H           2.8002    2.7850    8.6676 H       1  UNL1        0.0000
     71 H           2.8779    1.5395    7.4188 H       1  UNL1        0.0000
     72 H           4.3403    2.3853    7.9164 H       1  UNL1        0.0000
     73 H          -2.7016    3.9016    4.7194 H       1  UNL1        0.0000
     74 H          -2.9358    2.1538    4.7196 H       1  UNL1        0.0000
     75 H          -3.3815    3.1042    6.1395 H       1  UNL1        0.0000
@<TRIPOS>BOND
     1    34     5    1
     2    37     6    1
     3    35     5    1
     4     5     6    1
     5     5     4    1
     6     6    36    1
     7     6     7    1
     8    39     7    1
     9    33     4    1
    10     4    32    1
    11     4     3    1
    12     7    38    1
    13     7     8    1
    14    51    16    1
    15    52    16    1
    16     3     8    1
    17     3     2    1
    18     8     9    1
    19    16    53    1
    20    16     1    1
    21    47    14    1
    22    54    18    1
    23     2    10    1
    24     2     1    1
    25     9    14    1
    26     9    10    2
    27    14    46    1
    28    14    13    1
    29    10    11    1
    30    18    19    2
    31    18    17    1
    32     1    17    1
    33     1    15    1
    34    42    12    1
    35    55    19    1
    36    19    20    1
    37    17    21    1
    38    13    44    1
    39    13    12    1
    40    13    45    1
    41    49    15    1
    42    12    11    1
    43    12    43    1
    44    40    11    1
    45    11    41    1
    46    15    50    1
    47    15    48    1
    48    64    27    1
    49    65    27    1
    50    20    21    1
    51    20    22    1
    52    21    56    1
    53    73    31    1
    54    74    31    1
    55    27    22    1
    56    27    26    1
    57    22    57    1
    58    22    23    1
    59    31    26    1
    60    31    75    1
    61    58    23    1
    62    66    28    1
    63    26    63    1
    64    26    25    1
    65    62    25    1
    66    23    28    1
    67    23    24    1
    68    68    29    1
    69    28    29    1
    70    28    30    1
    71    25    24    1
    72    25    61    1
    73    29    67    1
    74    29    69    1
    75    24    60    1
    76    24    59    1
    77    71    30    1
    78    30    72    1
    79    30    70    1
