@<TRIPOS>MOLECULE
3,4,5,6,11,63,64,65,66,71
 121 126 0 0 0
SMALL
GASTEIGER

@<TRIPOS>ATOM
      1 SI          8.6301    6.2363    5.1943 Si      1  UNL1        0.0000
      2 O           5.3881    5.6673    5.4579 O.3     1  UNL1        0.0000
      3 C           7.9154    4.9087    4.0212 C.3     1  UNL1        0.0000
      4 C           8.7282    4.1399    3.1251 C.3     1  UNL1        0.0000
      5 C           8.0493    2.9642    2.7486 C.3     1  UNL1        0.0000
      6 C           6.7782    2.9561    3.3870 C.ar    1  UNL1        0.0000
      7 C           5.6928    2.0491    3.2967 C.ar    1  UNL1        0.0000
      8 C           4.5290    2.3880    3.9492 C.ar    1  UNL1        0.0000
      9 C           4.4035    3.5796    4.6772 C.ar    1  UNL1        0.0000
     10 C           5.4523    4.4647    4.7956 C.ar    1  UNL1        0.0000
     11 C           6.6895    4.1607    4.1753 C.ar    1  UNL1        0.0000
     12 C          10.0674    4.4898    2.5418 C.3     1  UNL1        0.0000
     13 C           5.8318    0.8017    2.5320 C.ar    1  UNL1        0.0000
     14 C           4.8081    0.3778    1.6886 C.ar    1  UNL1        0.0000
     15 C           4.9390   -0.7821    0.9447 C.ar    1  UNL1        0.0000
     16 C           6.1279   -1.5011    1.0507 C.ar    1  UNL1        0.0000
     17 C           7.1617   -1.1111    1.8898 C.ar    1  UNL1        0.0000
     18 C           6.9920    0.0455    2.6426 C.ar    1  UNL1        0.0000
     19 C           3.8498   -1.2884    0.0097 C.3     1  UNL1        0.0000
     20 C           4.3936   -1.3162   -1.4255 C.3     1  UNL1        0.0000
     21 C           3.4371   -2.7037    0.4376 C.3     1  UNL1        0.0000
     22 C           2.5994   -0.4048    0.0285 C.3     1  UNL1        0.0000
     23 C           8.4781   -1.8685    1.9770 C.3     1  UNL1        0.0000
     24 C           8.4571   -3.1825    1.1902 C.3     1  UNL1        0.0000
     25 C           9.5847   -0.9726    1.4010 C.3     1  UNL1        0.0000
     26 C           8.7962   -2.1900    3.4419 C.3     1  UNL1        0.0000
     27 C           4.1462    6.0826    5.9704 C.3     1  UNL1        0.0000
     28 C           9.7317    7.4842    4.2505 C.3     1  UNL1        0.0000
     29 H           8.3760    2.2761    1.9790 H       1  UNL1        0.0000
     30 H           3.6842    1.7173    3.9153 H       1  UNL1        0.0000
     31 H           3.4550    3.7887    5.1450 H       1  UNL1        0.0000
     32 H           9.9409    5.1428    1.6753 H       1  UNL1        0.0000
     33 H          10.5704    3.5798    2.2072 H       1  UNL1        0.0000
     34 H          10.7022    4.9997    3.2595 H       1  UNL1        0.0000
     35 H           3.9247    0.9903    1.6176 H       1  UNL1        0.0000
     36 H           6.2401   -2.3919    0.4568 H       1  UNL1        0.0000
     37 H           7.7565    0.3618    3.3440 H       1  UNL1        0.0000
     38 H           3.6228   -1.6583   -2.1132 H       1  UNL1        0.0000
     39 H           5.2473   -1.9825   -1.5127 H       1  UNL1        0.0000
     40 H           4.7079   -0.3189   -1.7266 H       1  UNL1        0.0000
     41 H           4.2711   -3.3970    0.3762 H       1  UNL1        0.0000
     42 H           2.6403   -3.0730   -0.2051 H       1  UNL1        0.0000
     43 H           3.0773   -2.6946    1.4643 H       1  UNL1        0.0000
     44 H           1.8504   -0.8215   -0.6423 H       1  UNL1        0.0000
     45 H           2.8271    0.6039   -0.3082 H       1  UNL1        0.0000
     46 H           2.1694   -0.3593    1.0263 H       1  UNL1        0.0000
     47 H           7.6658   -3.8380    1.5476 H       1  UNL1        0.0000
     48 H           9.4063   -3.6981    1.3223 H       1  UNL1        0.0000
     49 H           8.3224   -3.0043    0.1255 H       1  UNL1        0.0000
     50 H          10.5280   -1.5139    1.3764 H       1  UNL1        0.0000
     51 H           9.7221   -0.0866    2.0150 H       1  UNL1        0.0000
     52 H           9.3357   -0.6639    0.3869 H       1  UNL1        0.0000
     53 H           9.6859   -2.8132    3.5015 H       1  UNL1        0.0000
     54 H           7.9674   -2.7226    3.9027 H       1  UNL1        0.0000
     55 H           8.9876   -1.2850    4.0107 H       1  UNL1        0.0000
     56 H           3.7919    5.4138    6.7621 H       1  UNL1        0.0000
     57 H           3.3898    6.1449    5.1825 H       1  UNL1        0.0000
     58 H           4.3162    7.0743    6.3872 H       1  UNL1        0.0000
     59 H          10.4754    7.8981    4.9213 H       1  UNL1        0.0000
     60 H           9.1073    8.3038    3.9081 H       1  UNL1        0.0000
     61 H          10.2481    7.0853    3.3898 H       1  UNL1        0.0000
     62 O          11.8721    5.6673    4.9307 O.3     1  UNL1        0.0000
     63 C           9.3448    4.9087    6.3674 C.3     1  UNL1        0.0000
     64 C           8.5321    4.1398    7.2635 C.3     1  UNL1        0.0000
     65 C           9.2109    2.9640    7.6399 C.3     1  UNL1        0.0000
     66 C          10.4820    2.9560    7.0014 C.ar    1  UNL1        0.0000
     67 C          11.5674    2.0490    7.0918 C.ar    1  UNL1        0.0000
     68 C          12.7312    2.3880    6.4394 C.ar    1  UNL1        0.0000
     69 C          12.8567    3.5796    5.7114 C.ar    1  UNL1        0.0000
     70 C          11.8080    4.4647    5.5930 C.ar    1  UNL1        0.0000
     71 C          10.5707    4.1607    6.2133 C.ar    1  UNL1        0.0000
     72 C           7.1928    4.4898    7.8468 C.3     1  UNL1        0.0000
     73 C          11.4285    0.8017    7.8565 C.ar    1  UNL1        0.0000
     74 C          12.4522    0.3778    8.6999 C.ar    1  UNL1        0.0000
     75 C          12.3213   -0.7821    9.4438 C.ar    1  UNL1        0.0000
     76 C          11.1324   -1.5011    9.3379 C.ar    1  UNL1        0.0000
     77 C          10.0986   -1.1111    8.4988 C.ar    1  UNL1        0.0000
     78 C          10.2683    0.0455    7.7460 C.ar    1  UNL1        0.0000
     79 C          13.4106   -1.2885   10.3787 C.3     1  UNL1        0.0000
     80 C          12.8669   -1.3160   11.8140 C.3     1  UNL1        0.0000
     81 C          13.8231   -2.7039    9.9510 C.3     1  UNL1        0.0000
     82 C          14.6611   -0.4050   10.3597 C.3     1  UNL1        0.0000
     83 C           8.7821   -1.8684    8.4117 C.3     1  UNL1        0.0000
     84 C           8.8032   -3.1825    9.1986 C.3     1  UNL1        0.0000
     85 C           7.6756   -0.9725    8.9878 C.3     1  UNL1        0.0000
     86 C           8.4640   -2.1900    6.9468 C.3     1  UNL1        0.0000
     87 C          13.1141    6.0827    4.4182 C.3     1  UNL1        0.0000
     88 C           7.5285    7.4842    6.1381 C.3     1  UNL1        0.0000
     89 H           8.8842    2.2760    8.4095 H       1  UNL1        0.0000
     90 H          13.5761    1.7173    6.4733 H       1  UNL1        0.0000
     91 H          13.8053    3.7887    5.2436 H       1  UNL1        0.0000
     92 H           7.3194    5.1429    8.7132 H       1  UNL1        0.0000
     93 H           6.6899    3.5798    8.1816 H       1  UNL1        0.0000
     94 H           6.5580    4.9996    7.1291 H       1  UNL1        0.0000
     95 H          13.3357    0.9903    8.7709 H       1  UNL1        0.0000
     96 H          11.0203   -2.3918    9.9318 H       1  UNL1        0.0000
     97 H           9.5037    0.3618    7.0446 H       1  UNL1        0.0000
     98 H          13.6378   -1.6582   12.5017 H       1  UNL1        0.0000
     99 H          12.0131   -1.9822   11.9014 H       1  UNL1        0.0000
    100 H          12.5528   -0.3186   12.1151 H       1  UNL1        0.0000
    101 H          12.9891   -3.3971   10.0126 H       1  UNL1        0.0000
    102 H          14.6199   -3.0732   10.5936 H       1  UNL1        0.0000
    103 H          14.1828   -2.6949    8.9243 H       1  UNL1        0.0000
    104 H          15.4102   -0.8217   11.0304 H       1  UNL1        0.0000
    105 H          14.4336    0.6037   10.6963 H       1  UNL1        0.0000
    106 H          15.0910   -0.3597    9.3618 H       1  UNL1        0.0000
    107 H           9.5945   -3.8380    8.8411 H       1  UNL1        0.0000
    108 H           7.8540   -3.6980    9.0665 H       1  UNL1        0.0000
    109 H           8.9380   -3.0042   10.2633 H       1  UNL1        0.0000
    110 H           6.7323   -1.5138    9.0124 H       1  UNL1        0.0000
    111 H           7.5382   -0.0865    8.3737 H       1  UNL1        0.0000
    112 H           7.9247   -0.6638   10.0018 H       1  UNL1        0.0000
    113 H           7.5743   -2.8131    6.8873 H       1  UNL1        0.0000
    114 H           9.2927   -2.7226    6.4860 H       1  UNL1        0.0000
    115 H           8.2726   -1.2850    6.3781 H       1  UNL1        0.0000
    116 H          13.4684    5.4138    3.6266 H       1  UNL1        0.0000
    117 H          13.8704    6.1450    5.2061 H       1  UNL1        0.0000
    118 H          12.9440    7.0743    4.0014 H       1  UNL1        0.0000
    119 H           6.7849    7.8981    5.4674 H       1  UNL1        0.0000
    120 H           8.1529    8.3037    6.4807 H       1  UNL1        0.0000
    121 H           7.0121    7.0852    6.9988 H       1  UNL1        0.0000
@<TRIPOS>BOND
     1    38    20    1
     2    40    20    1
     3    39    20    1
     4    20    19    1
     5    44    22    1
     6    45    22    1
     7    42    21    1
     8    19    22    1
     9    19    21    1
    10    19    15    1
    11    22    46    1
    12    49    24    1
    13    41    21    1
    14    52    25    1
    15    21    43    1
    16    36    16    1
    17    15    16   ar
    18    15    14   ar
    19    16    17   ar
    20    24    48    1
    21    24    47    1
    22    24    23    1
    23    50    25    1
    24    25    23    1
    25    25    51    1
    26    35    14    1
    27    32    12    1
    28    14    13   ar
    29    17    23    1
    30    17    18   ar
    31    23    26    1
    32    29     5    1
    33    33    12    1
    34    13    18   ar
    35    13     7    1
    36    12     4    1
    37    12    34    1
    38    18    37    1
    39     5     4    1
    40     5     6    1
    41     4     3    1
    42     7     6   ar
    43     7     8   ar
    44     6    11   ar
    45    61    28    1
    46    26    53    1
    47    26    54    1
    48    26    55    1
    49   116    87    1
    50    60    28    1
    51    30     8    1
    52     8     9   ar
    53   118    87    1
    54     3    11    1
    55     3     1    1
    56    11    10   ar
    57    28    59    1
    58    28     1    1
    59    87    62    1
    60    87   117    1
    61     9    10   ar
    62     9    31    1
    63    10     2    1
    64    62    70    1
    65    57    27    1
    66     1    88    1
    67     1    63    1
    68    91    69    1
    69     2    27    1
    70   119    88    1
    71    70    69   ar
    72    70    71   ar
    73    69    68   ar
    74    27    58    1
    75    27    56    1
    76    88   120    1
    77    88   121    1
    78    71    63    1
    79    71    66   ar
    80    63    64    1
    81   115    86    1
    82    68    90    1
    83    68    67   ar
    84   114    86    1
    85   113    86    1
    86    86    83    1
    87    66    67   ar
    88    66    65    1
    89    97    78    1
    90    67    73    1
    91    94    72    1
    92    64    65    1
    93    64    72    1
    94    65    89    1
    95    78    73   ar
    96    78    77   ar
    97    72    93    1
    98    72    92    1
    99    73    74   ar
   100   111    85    1
   101    83    77    1
   102    83    85    1
   103    83    84    1
   104    77    76   ar
   105    74    95    1
   106    74    75   ar
   107   107    84    1
   108   103    81    1
   109    85   110    1
   110    85   112    1
   111   108    84    1
   112    84   109    1
   113    76    75   ar
   114    76    96    1
   115   106    82    1
   116    75    79    1
   117    81   101    1
   118    81    79    1
   119    81   102    1
   120    82    79    1
   121    82   105    1
   122    82   104    1
   123    79    80    1
   124    80    99    1
   125    80   100    1
   126    80    98    1
