@<TRIPOS>MOLECULE
3,4,5,6,11,63,64,65,66,71
 121 126 0 0 0
SMALL
GASTEIGER

@<TRIPOS>ATOM
      1 SI          8.6152    6.1529    5.1903 Si      1  UNL1        0.0000
      2 O           5.3433    5.6696    5.3883 O.3     1  UNL1        0.0000
      3 C           7.8792    4.8219    4.0371 C.3     1  UNL1        0.0000
      4 C           8.7030    4.0281    3.1658 C.3     1  UNL1        0.0000
      5 C           7.9887    2.8810    2.7527 C.3     1  UNL1        0.0000
      6 C           6.6886    2.9322    3.3239 C.ar    1  UNL1        0.0000
      7 C           5.5640    2.0901    3.1540 C.ar    1  UNL1        0.0000
      8 C           4.3863    2.4828    3.7501 C.ar    1  UNL1        0.0000
      9 C           4.2860    3.6623    4.4985 C.ar    1  UNL1        0.0000
     10 C           5.3725    4.4866    4.6905 C.ar    1  UNL1        0.0000
     11 C           6.6191    4.1262    4.1249 C.ar    1  UNL1        0.0000
     12 C          10.0651    4.3523    2.6207 C.3     1  UNL1        0.0000
     13 C           5.6632    0.8526    2.3682 C.ar    1  UNL1        0.0000
     14 C           4.6513    0.5070    1.4753 C.ar    1  UNL1        0.0000
     15 C           4.7334   -0.6533    0.7253 C.ar    1  UNL1        0.0000
     16 C           5.8587   -1.4605    0.8809 C.ar    1  UNL1        0.0000
     17 C           6.8784   -1.1494    1.7676 C.ar    1  UNL1        0.0000
     18 C           6.7620    0.0169    2.5149 C.ar    1  UNL1        0.0000
     19 C           3.6530   -1.0779   -0.2593 C.3     1  UNL1        0.0000
     20 C           4.2587   -1.1579   -1.6675 C.3     1  UNL1        0.0000
     21 C           3.1110   -2.4539    0.1531 C.3     1  UNL1        0.0000
     22 C           2.4765   -0.0989   -0.3017 C.3     1  UNL1        0.0000
     23 C           8.1118   -2.0213    1.9454 C.3     1  UNL1        0.0000
     24 C           8.0915   -3.2687    1.0573 C.3     1  UNL1        0.0000
     25 C           9.3578   -1.1974    1.5894 C.3     1  UNL1        0.0000
     26 C           8.1945   -2.4716    3.4087 C.3     1  UNL1        0.0000
     27 C           4.1058    6.1312    5.8698 C.3     1  UNL1        0.0000
     28 C           9.6930    7.3859    4.2106 C.3     1  UNL1        0.0000
     29 H           8.3117    2.1934    1.9837 H       1  UNL1        0.0000
     30 H           3.5083    1.8630    3.6529 H       1  UNL1        0.0000
     31 H           3.3269    3.9135    4.9218 H       1  UNL1        0.0000
     32 H           9.9730    5.0204    1.7619 H       1  UNL1        0.0000
     33 H          10.5544    3.4379    2.2815 H       1  UNL1        0.0000
     34 H          10.6971    4.8370    3.3585 H       1  UNL1        0.0000
     35 H           3.8152    1.1788    1.3735 H       1  UNL1        0.0000
     36 H           5.9302   -2.3577    0.2904 H       1  UNL1        0.0000
     37 H           7.5191    0.2746    3.2440 H       1  UNL1        0.0000
     38 H           3.4960   -1.4443   -2.3890 H       1  UNL1        0.0000
     39 H           5.0609   -1.8892   -1.7126 H       1  UNL1        0.0000
     40 H           4.6632   -0.1903   -1.9573 H       1  UNL1        0.0000
     41 H           3.8893   -3.2114    0.1271 H       1  UNL1        0.0000
     42 H           2.3145   -2.7619   -0.5215 H       1  UNL1        0.0000
     43 H           2.7113   -2.4117    1.1641 H       1  UNL1        0.0000
     44 H           1.7325   -0.4561   -1.0113 H       1  UNL1        0.0000
     45 H           2.7997    0.8886   -0.6229 H       1  UNL1        0.0000
     46 H           2.0001   -0.0189    0.6727 H       1  UNL1        0.0000
     47 H           7.2336   -3.8980    1.2841 H       1  UNL1        0.0000
     48 H           8.9916   -3.8536    1.2366 H       1  UNL1        0.0000
     49 H           8.0713   -3.0004    0.0030 H       1  UNL1        0.0000
     50 H          10.2440   -1.8275    1.6242 H       1  UNL1        0.0000
     51 H           9.5035   -0.3802    2.2897 H       1  UNL1        0.0000
     52 H           9.2659   -0.7871    0.5850 H       1  UNL1        0.0000
     53 H           9.0726   -3.0947    3.5623 H       1  UNL1        0.0000
     54 H           7.3094   -3.0438    3.6792 H       1  UNL1        0.0000
     55 H           8.2658   -1.6174    4.0745 H       1  UNL1        0.0000
     56 H           3.6864    5.4528    6.6203 H       1  UNL1        0.0000
     57 H           3.3850    6.2639    5.0575 H       1  UNL1        0.0000
     58 H           4.3109    7.0959    6.3317 H       1  UNL1        0.0000
     59 H          10.4069    7.8568    4.8759 H       1  UNL1        0.0000
     60 H           9.0485    8.1655    3.8164 H       1  UNL1        0.0000
     61 H          10.2420    6.9636    3.3820 H       1  UNL1        0.0000
     62 O          11.8872    5.6695    4.9922 O.3     1  UNL1        0.0000
     63 C           9.3513    4.8219    6.3434 C.3     1  UNL1        0.0000
     64 C           8.5275    4.0281    7.2149 C.3     1  UNL1        0.0000
     65 C           9.2419    2.8810    7.6279 C.3     1  UNL1        0.0000
     66 C          10.5419    2.9322    7.0566 C.ar    1  UNL1        0.0000
     67 C          11.6665    2.0901    7.2266 C.ar    1  UNL1        0.0000
     68 C          12.8443    2.4828    6.6306 C.ar    1  UNL1        0.0000
     69 C          12.9445    3.6623    5.8820 C.ar    1  UNL1        0.0000
     70 C          11.8580    4.4865    5.6900 C.ar    1  UNL1        0.0000
     71 C          10.6113    4.1261    6.2555 C.ar    1  UNL1        0.0000
     72 C           7.1654    4.3523    7.7599 C.3     1  UNL1        0.0000
     73 C          11.5673    0.8525    8.0124 C.ar    1  UNL1        0.0000
     74 C          12.5791    0.5070    8.9054 C.ar    1  UNL1        0.0000
     75 C          12.4971   -0.6533    9.6554 C.ar    1  UNL1        0.0000
     76 C          11.3718   -1.4605    9.4997 C.ar    1  UNL1        0.0000
     77 C          10.3521   -1.1494    8.6130 C.ar    1  UNL1        0.0000
     78 C          10.4685    0.0169    7.8656 C.ar    1  UNL1        0.0000
     79 C          13.5775   -1.0779   10.6399 C.3     1  UNL1        0.0000
     80 C          12.9718   -1.1579   12.0481 C.3     1  UNL1        0.0000
     81 C          14.1194   -2.4539   10.2276 C.3     1  UNL1        0.0000
     82 C          14.7540   -0.0989   10.6823 C.3     1  UNL1        0.0000
     83 C           9.1187   -2.0213    8.4351 C.3     1  UNL1        0.0000
     84 C           9.1390   -3.2687    9.3233 C.3     1  UNL1        0.0000
     85 C           7.8727   -1.1974    8.7912 C.3     1  UNL1        0.0000
     86 C           9.0360   -2.4716    6.9718 C.3     1  UNL1        0.0000
     87 C          13.1246    6.1312    4.5107 C.3     1  UNL1        0.0000
     88 C           7.5374    7.3859    6.1700 C.3     1  UNL1        0.0000
     89 H           8.9189    2.1935    8.3970 H       1  UNL1        0.0000
     90 H          13.7223    1.8630    6.7278 H       1  UNL1        0.0000
     91 H          13.9036    3.9136    5.4589 H       1  UNL1        0.0000
     92 H           7.2574    5.0204    8.6187 H       1  UNL1        0.0000
     93 H           6.6760    3.4379    8.0989 H       1  UNL1        0.0000
     94 H           6.5335    4.8370    7.0220 H       1  UNL1        0.0000
     95 H          13.4153    1.1788    9.0072 H       1  UNL1        0.0000
     96 H          11.3003   -2.3577   10.0902 H       1  UNL1        0.0000
     97 H           9.7114    0.2746    7.1366 H       1  UNL1        0.0000
     98 H          13.7345   -1.4444   12.7697 H       1  UNL1        0.0000
     99 H          12.1696   -1.8892   12.0933 H       1  UNL1        0.0000
    100 H          12.5673   -0.1903   12.3380 H       1  UNL1        0.0000
    101 H          13.3412   -3.2114   10.2536 H       1  UNL1        0.0000
    102 H          14.9160   -2.7619   10.9021 H       1  UNL1        0.0000
    103 H          14.5191   -2.4117    9.2165 H       1  UNL1        0.0000
    104 H          15.4980   -0.4562   11.3919 H       1  UNL1        0.0000
    105 H          14.4308    0.8886   11.0035 H       1  UNL1        0.0000
    106 H          15.2303   -0.0189    9.7079 H       1  UNL1        0.0000
    107 H           9.9969   -3.8980    9.0965 H       1  UNL1        0.0000
    108 H           8.2390   -3.8537    9.1440 H       1  UNL1        0.0000
    109 H           9.1593   -3.0005   10.3775 H       1  UNL1        0.0000
    110 H           6.9865   -1.8275    8.7563 H       1  UNL1        0.0000
    111 H           7.7271   -0.3802    8.0909 H       1  UNL1        0.0000
    112 H           7.9647   -0.7871    9.7956 H       1  UNL1        0.0000
    113 H           8.1579   -3.0947    6.8183 H       1  UNL1        0.0000
    114 H           9.9211   -3.0438    6.7013 H       1  UNL1        0.0000
    115 H           8.9647   -1.6174    6.3060 H       1  UNL1        0.0000
    116 H          13.5440    5.4529    3.7602 H       1  UNL1        0.0000
    117 H          13.8454    6.2640    5.3229 H       1  UNL1        0.0000
    118 H          12.9194    7.0959    4.0488 H       1  UNL1        0.0000
    119 H           6.8236    7.8568    5.5047 H       1  UNL1        0.0000
    120 H           8.1820    8.1656    6.5642 H       1  UNL1        0.0000
    121 H           6.9885    6.9636    6.9986 H       1  UNL1        0.0000
@<TRIPOS>BOND
     1    38    20    1
     2    40    20    1
     3    39    20    1
     4    20    19    1
     5    44    22    1
     6    45    22    1
     7    42    21    1
     8    22    19    1
     9    22    46    1
    10    19    21    1
    11    19    15    1
    12    49    24    1
    13    41    21    1
    14    21    43    1
    15    36    16    1
    16    52    25    1
    17    15    16   ar
    18    15    14   ar
    19    16    17   ar
    20    24    48    1
    21    24    47    1
    22    24    23    1
    23    35    14    1
    24    14    13   ar
    25    25    50    1
    26    25    23    1
    27    25    51    1
    28    32    12    1
    29    17    23    1
    30    17    18   ar
    31    23    26    1
    32    29     5    1
    33    33    12    1
    34    13    18   ar
    35    13     7    1
    36    18    37    1
    37    12     4    1
    38    12    34    1
    39     5     4    1
    40     5     6    1
    41     7     6   ar
    42     7     8   ar
    43     4     3    1
    44     6    11   ar
    45    61    28    1
    46    26    53    1
    47    26    54    1
    48    26    55    1
    49    30     8    1
    50     8     9   ar
    51   116    87    1
    52    60    28    1
    53     3    11    1
    54     3     1    1
    55   118    87    1
    56    11    10   ar
    57    28    59    1
    58    28     1    1
    59     9    10   ar
    60     9    31    1
    61    87    62    1
    62    87   117    1
    63    10     2    1
    64    62    70    1
    65    57    27    1
    66     1    88    1
    67     1    63    1
    68     2    27    1
    69    91    69    1
    70   119    88    1
    71    70    69   ar
    72    70    71   ar
    73    27    58    1
    74    27    56    1
    75    69    68   ar
    76    88   120    1
    77    88   121    1
    78    71    63    1
    79    71    66   ar
    80   115    86    1
    81    63    64    1
    82    68    90    1
    83    68    67   ar
    84   114    86    1
    85   113    86    1
    86    86    83    1
    87    94    72    1
    88    66    67   ar
    89    66    65    1
    90    97    78    1
    91    64    65    1
    92    64    72    1
    93    67    73    1
    94    65    89    1
    95    72    93    1
    96    72    92    1
    97    78    73   ar
    98    78    77   ar
    99    73    74   ar
   100   111    85    1
   101    83    77    1
   102    83    85    1
   103    83    84    1
   104    77    76   ar
   105   110    85    1
   106    85   112    1
   107    74    95    1
   108    74    75   ar
   109   107    84    1
   110   108    84    1
   111   103    81    1
   112    84   109    1
   113    76    75   ar
   114    76    96    1
   115    75    79    1
   116   106    82    1
   117    81   101    1
   118    81    79    1
   119    81   102    1
   120    79    82    1
   121    79    80    1
   122    82   105    1
   123    82   104    1
   124    80    99    1
   125    80   100    1
   126    80    98    1
