@<TRIPOS>MOLECULE
2,3,4,5,10,33,34,35,50,51
 63 66 0 0 0
SMALL
GASTEIGER

@<TRIPOS>ATOM
      1 SI          2.1096   -1.5059    8.2268 Si      1  UNL1        0.0000
      2 C           5.2813    0.1565    6.0869 C.3     1  UNL1        0.0000
      3 C           4.5352   -0.9383    6.5966 C.3     1  UNL1        0.0000
      4 C           3.4021   -0.4822    7.3214 C.3     1  UNL1        0.0000
      5 C           3.4540    0.9454    7.2887 C.ar    1  UNL1        0.0000
      6 C           2.6407    1.9073    7.9120 C.ar    1  UNL1        0.0000
      7 C           2.8981    3.2377    7.7053 C.ar    1  UNL1        0.0000
      8 C           3.9651    3.6425    6.8884 C.ar    1  UNL1        0.0000
      9 C           4.8029    2.7338    6.2905 C.ar    1  UNL1        0.0000
     10 C           4.5861    1.3514    6.4798 C.ar    1  UNL1        0.0000
     11 C           6.2785    0.0000    4.9369 C.3     1  UNL1        0.0000
     12 C           7.2066    1.2048    4.7223 C.3     1  UNL1        0.0000
     13 C           2.3598   -1.3008   10.1135 C.3     1  UNL1        0.0000
     14 C           0.3772   -0.8400    7.7508 C.3     1  UNL1        0.0000
     15 C           2.3790   -3.3485    7.7959 C.3     1  UNL1        0.0000
     16 H           4.8100   -1.9869    6.5343 H       1  UNL1        0.0000
     17 H           1.8282    1.5913    8.5505 H       1  UNL1        0.0000
     18 H           2.2815    3.9891    8.1743 H       1  UNL1        0.0000
     19 H           4.1386    4.6983    6.7414 H       1  UNL1        0.0000
     20 H           5.6453    3.0992    5.7232 H       1  UNL1        0.0000
     21 H           7.9961    0.9250    4.0272 H       1  UNL1        0.0000
     22 H           7.6653    1.4942    5.6655 H       1  UNL1        0.0000
     23 H           6.6968    2.0643    4.3024 H       1  UNL1        0.0000
     24 H           1.6038   -1.8549   10.6594 H       1  UNL1        0.0000
     25 H           2.2936   -0.2623   10.4203 H       1  UNL1        0.0000
     26 H           3.3295   -1.6718   10.4286 H       1  UNL1        0.0000
     27 H          -0.2446   -1.6301    7.3421 H       1  UNL1        0.0000
     28 H           0.4456   -0.0599    6.9902 H       1  UNL1        0.0000
     29 H          -0.1434   -0.4266    8.6100 H       1  UNL1        0.0000
     30 H           1.5992   -3.9567    8.2418 H       1  UNL1        0.0000
     31 H           3.3289   -3.7108    8.1785 H       1  UNL1        0.0000
     32 H           2.3556   -3.5188    6.7234 H       1  UNL1        0.0000
     33 C           5.2813   -0.1565    3.7869 C.3     1  UNL1        0.0000
     34 C           4.5352    0.9383    3.2771 C.3     1  UNL1        0.0000
     35 C           3.4021    0.4822    2.5523 C.3     1  UNL1        0.0000
     36 SI          2.1097    1.5058    1.6468 Si      1  UNL1        0.0000
     37 C           2.3600    1.3008   -0.2399 C.3     1  UNL1        0.0000
     38 H           1.6036    1.8544   -0.7857 H       1  UNL1        0.0000
     39 H           2.2944    0.2622   -0.5466 H       1  UNL1        0.0000
     40 H           3.3294    1.6724   -0.5551 H       1  UNL1        0.0000
     41 C           0.3772    0.8397    2.1228 C.3     1  UNL1        0.0000
     42 H          -0.2449    1.6298    2.5310 H       1  UNL1        0.0000
     43 H           0.4457    0.0600    2.8837 H       1  UNL1        0.0000
     44 H          -0.1431    0.4259    1.2637 H       1  UNL1        0.0000
     45 C           2.3787    3.3485    2.0777 C.3     1  UNL1        0.0000
     46 H           1.5990    3.9566    1.6314 H       1  UNL1        0.0000
     47 H           3.3286    3.7109    1.6954 H       1  UNL1        0.0000
     48 H           2.3548    3.5189    3.1501 H       1  UNL1        0.0000
     49 H           4.8101    1.9869    3.3394 H       1  UNL1        0.0000
     50 C           3.4540   -0.9453    2.5850 C.ar    1  UNL1        0.0000
     51 C           4.5860   -1.3513    3.3941 C.ar    1  UNL1        0.0000
     52 C           2.6406   -1.9072    1.9619 C.ar    1  UNL1        0.0000
     53 C           2.8978   -3.2377    2.1688 C.ar    1  UNL1        0.0000
     54 C           3.9646   -3.6425    2.9860 C.ar    1  UNL1        0.0000
     55 C           4.8026   -2.7338    3.5837 C.ar    1  UNL1        0.0000
     56 H           5.6449   -3.0991    4.1511 H       1  UNL1        0.0000
     57 H           4.1379   -4.6983    3.1332 H       1  UNL1        0.0000
     58 H           2.2811   -3.9891    1.7000 H       1  UNL1        0.0000
     59 H           1.8282   -1.5913    1.3233 H       1  UNL1        0.0000
     60 C           7.2066   -1.2047    5.1514 C.3     1  UNL1        0.0000
     61 H           7.9962   -0.9249    5.8464 H       1  UNL1        0.0000
     62 H           7.6653   -1.4941    4.2082 H       1  UNL1        0.0000
     63 H           6.6969   -2.0642    5.5714 H       1  UNL1        0.0000
@<TRIPOS>BOND
     1    38    37    1
     2    40    37    1
     3    39    37    1
     4    37    36    1
     5    44    41    1
     6    59    52    1
     7    46    45    1
     8    36    45    1
     9    36    41    1
    10    36    35    1
    11    47    45    1
    12    58    53    1
    13    52    53   ar
    14    52    50   ar
    15    45    48    1
    16    41    42    1
    17    41    43    1
    18    53    54   ar
    19    35    50    1
    20    35    34    1
    21    50    51   ar
    22    54    57    1
    23    54    55   ar
    24    34    49    1
    25    34    33    1
    26    51    55   ar
    27    51    33    1
    28    55    56    1
    29    33    11    1
    30    21    12    1
    31    62    60    1
    32    23    12    1
    33    12    11    1
    34    12    22    1
    35    11    60    1
    36    11     2    1
    37    60    63    1
    38    60    61    1
    39    20     9    1
    40     2    10    1
    41     2     3    1
    42     9    10   ar
    43     9     8   ar
    44    10     5   ar
    45    16     3    1
    46     3     4    1
    47    32    15    1
    48    19     8    1
    49     8     7   ar
    50    28    14    1
    51     5     4    1
    52     5     6   ar
    53     4     1    1
    54    27    14    1
    55     7     6   ar
    56     7    18    1
    57    14     1    1
    58    14    29    1
    59    15    31    1
    60    15     1    1
    61    15    30    1
    62     6    17    1
    63     1    13    1
    64    13    25    1
    65    13    26    1
    66    13    24    1
