@<TRIPOS>MOLECULE
3,4,5,6,7,45,46,47,48,49
 85 90 0 0 0
SMALL
GASTEIGER

@<TRIPOS>ATOM
      1 SI          9.9550   -3.2365    3.3162 Si      1  UNL1        0.0000
      2 O           8.4681   -2.6780    0.4026 O.3     1  UNL1        0.0000
      3 C           7.5707    0.0393    4.0831 C.3     1  UNL1        0.0000
      4 C           8.2392   -1.1392    4.4693 C.3     1  UNL1        0.0000
      5 C           8.5780   -1.9119    3.3098 C.3     1  UNL1        0.0000
      6 C           8.0663   -1.1688    2.1820 C.ar    1  UNL1        0.0000
      7 C           7.4539    0.0426    2.6662 C.ar    1  UNL1        0.0000
      8 C           6.8290    0.9606    1.7863 C.ar    1  UNL1        0.0000
      9 C           6.7443    0.6087    0.4589 C.ar    1  UNL1        0.0000
     10 C           7.2731   -0.5976   -0.0232 C.ar    1  UNL1        0.0000
     11 C           7.9345   -1.4776    0.8051 C.ar    1  UNL1        0.0000
     12 C           8.4439   -1.4905    5.9151 C.3     1  UNL1        0.0000
     13 C           8.2675   -3.0873   -0.9277 C.3     1  UNL1        0.0000
     14 C           6.3588    2.2584    2.2915 C.ar    1  UNL1        0.0000
     15 C           7.1877    2.9995    3.1327 C.ar    1  UNL1        0.0000
     16 C           6.7876    4.2343    3.6150 C.ar    1  UNL1        0.0000
     17 C           5.5388    4.7265    3.2516 C.ar    1  UNL1        0.0000
     18 C           4.7009    4.0106    2.4097 C.ar    1  UNL1        0.0000
     19 C           5.1218    2.7770    1.9304 C.ar    1  UNL1        0.0000
     20 C           7.6993    5.0290    4.4996 C.3     1  UNL1        0.0000
     21 C           3.3495    4.5407    2.0318 C.3     1  UNL1        0.0000
     22 C          10.1813   -4.4824    1.8817 C.3     1  UNL1        0.0000
     23 H           7.1010    0.7443    4.7584 H       1  UNL1        0.0000
     24 H           6.2783    1.2833   -0.2430 H       1  UNL1        0.0000
     25 H           7.1574   -0.8156   -1.0726 H       1  UNL1        0.0000
     26 H           9.4000   -1.9769    6.0824 H       1  UNL1        0.0000
     27 H           7.6543   -2.1648    6.2541 H       1  UNL1        0.0000
     28 H           8.3971   -0.5840    6.5220 H       1  UNL1        0.0000
     29 H           8.7494   -2.4056   -1.6367 H       1  UNL1        0.0000
     30 H           7.2026   -3.1650   -1.1659 H       1  UNL1        0.0000
     31 H           8.7274   -4.0714   -1.0055 H       1  UNL1        0.0000
     32 H           8.1743    2.6228    3.3908 H       1  UNL1        0.0000
     33 H           5.2185    5.6877    3.6298 H       1  UNL1        0.0000
     34 H           4.4727    2.2040    1.2836 H       1  UNL1        0.0000
     35 H           8.1751    5.8241    3.9251 H       1  UNL1        0.0000
     36 H           8.4794    4.3944    4.9137 H       1  UNL1        0.0000
     37 H           7.1442    5.4908    5.3140 H       1  UNL1        0.0000
     38 H           3.1746    4.4208    0.9643 H       1  UNL1        0.0000
     39 H           3.2582    5.5936    2.2866 H       1  UNL1        0.0000
     40 H           2.5704    3.9912    2.5609 H       1  UNL1        0.0000
     41 H          10.6351   -4.0792    0.9883 H       1  UNL1        0.0000
     42 H           9.2210   -4.9017    1.6051 H       1  UNL1        0.0000
     43 H          10.8075   -5.2984    2.2290 H       1  UNL1        0.0000
     44 O          11.4419   -2.6779    6.2299 O.3     1  UNL1        0.0000
     45 C          12.3395    0.0393    2.5493 C.3     1  UNL1        0.0000
     46 C          11.6709   -1.1393    2.1632 C.3     1  UNL1        0.0000
     47 C          11.3321   -1.9119    3.3227 C.3     1  UNL1        0.0000
     48 C          11.8437   -1.1688    4.4504 C.ar    1  UNL1        0.0000
     49 C          12.4563    0.0425    3.9663 C.ar    1  UNL1        0.0000
     50 C          13.0812    0.9606    4.8462 C.ar    1  UNL1        0.0000
     51 C          13.1658    0.6087    6.1735 C.ar    1  UNL1        0.0000
     52 C          12.6369   -0.5976    6.6557 C.ar    1  UNL1        0.0000
     53 C          11.9755   -1.4776    5.8274 C.ar    1  UNL1        0.0000
     54 C          11.4663   -1.4905    0.7173 C.3     1  UNL1        0.0000
     55 C          11.6424   -3.0872    7.5602 C.3     1  UNL1        0.0000
     56 C          13.5513    2.2583    4.3409 C.ar    1  UNL1        0.0000
     57 C          12.7223    2.9995    3.4997 C.ar    1  UNL1        0.0000
     58 C          13.1225    4.2343    3.0175 C.ar    1  UNL1        0.0000
     59 C          14.3712    4.7265    3.3809 C.ar    1  UNL1        0.0000
     60 C          15.2091    4.0106    4.2228 C.ar    1  UNL1        0.0000
     61 C          14.7882    2.7770    4.7021 C.ar    1  UNL1        0.0000
     62 C          12.2107    5.0289    2.1328 C.3     1  UNL1        0.0000
     63 C          16.5605    4.5408    4.6007 C.3     1  UNL1        0.0000
     64 C           9.7287   -4.4824    4.7508 C.3     1  UNL1        0.0000
     65 H          12.8092    0.7442    1.8740 H       1  UNL1        0.0000
     66 H          13.6317    1.2833    6.8754 H       1  UNL1        0.0000
     67 H          12.7526   -0.8156    7.7051 H       1  UNL1        0.0000
     68 H          10.5100   -1.9768    0.5500 H       1  UNL1        0.0000
     69 H          12.2557   -2.1651    0.3784 H       1  UNL1        0.0000
     70 H          11.5132   -0.5841    0.1104 H       1  UNL1        0.0000
     71 H          11.1605   -2.4055    8.2691 H       1  UNL1        0.0000
     72 H          12.7073   -3.1650    7.7985 H       1  UNL1        0.0000
     73 H          11.1825   -4.0713    7.6380 H       1  UNL1        0.0000
     74 H          11.7358    2.6227    3.2416 H       1  UNL1        0.0000
     75 H          14.6915    5.6877    3.0027 H       1  UNL1        0.0000
     76 H          15.4374    2.2041    5.3488 H       1  UNL1        0.0000
     77 H          11.7350    5.8241    2.7073 H       1  UNL1        0.0000
     78 H          11.4305    4.3944    1.7188 H       1  UNL1        0.0000
     79 H          12.7657    5.4906    1.3183 H       1  UNL1        0.0000
     80 H          16.7354    4.4208    5.6682 H       1  UNL1        0.0000
     81 H          16.6517    5.5937    4.3460 H       1  UNL1        0.0000
     82 H          17.3396    3.9914    4.0716 H       1  UNL1        0.0000
     83 H           9.2749   -4.0792    5.6441 H       1  UNL1        0.0000
     84 H          10.6890   -4.9017    5.0274 H       1  UNL1        0.0000
     85 H           9.1025   -5.2984    4.4034 H       1  UNL1        0.0000
@<TRIPOS>BOND
     1    29    13    1
     2    30    13    1
     3    25    10    1
     4    31    13    1
     5    13     2    1
     6    24     9    1
     7    10     9   ar
     8    10    11   ar
     9    70    54    1
    10    69    54    1
    11     2    11    1
    12     9     8   ar
    13    68    54    1
    14    54    46    1
    15    11     6   ar
    16    38    21    1
    17    41    22    1
    18    34    19    1
    19    79    62    1
    20    42    22    1
    21    78    62    1
    22     8    14    1
    23     8     7   ar
    24    65    45    1
    25    22    43    1
    26    22     1    1
    27    19    14   ar
    28    19    18   ar
    29    21    39    1
    30    21    18    1
    31    21    40    1
    32    62    77    1
    33    62    58    1
    34    46    45    1
    35    46    47    1
    36     6     7   ar
    37     6     5    1
    38    14    15   ar
    39    18    17   ar
    40    45    49    1
    41     7     3    1
    42    75    59    1
    43    58    59   ar
    44    58    57   ar
    45    15    32    1
    46    15    16   ar
    47    74    57    1
    48    17    16   ar
    49    17    33    1
    50     5     1    1
    51     5     4    1
    52     1    47    1
    53     1    64    1
    54    47    48    1
    55    59    60   ar
    56    57    56   ar
    57    16    20    1
    58    35    20    1
    59    49    48   ar
    60    49    50   ar
    61    82    63    1
    62     3     4    1
    63     3    23    1
    64    60    63    1
    65    60    61   ar
    66    56    61   ar
    67    56    50    1
    68    81    63    1
    69    85    64    1
    70    48    53   ar
    71     4    12    1
    72    20    36    1
    73    20    37    1
    74    63    80    1
    75    61    76    1
    76    64    84    1
    77    64    83    1
    78    50    51   ar
    79    53    44    1
    80    53    52   ar
    81    12    26    1
    82    12    27    1
    83    12    28    1
    84    51    52   ar
    85    51    66    1
    86    44    55    1
    87    52    67    1
    88    55    73    1
    89    55    72    1
    90    55    71    1
