@<TRIPOS>MOLECULE
3,4,5,6,7,45,46,47,48,49
 85 90 0 0 0
SMALL
GASTEIGER

@<TRIPOS>ATOM
      1 SI          9.9599    7.9985    3.3073 Si      1  UNL1        0.0000
      2 O           8.4927    7.4595    0.3857 O.3     1  UNL1        0.0000
      3 C           8.5568    6.7069    3.2937 C.3     1  UNL1        0.0000
      4 C           8.1841    5.9612    4.4533 C.2     1  UNL1        0.0000
      5 C           7.4649    4.8121    4.0794 C.2     1  UNL1        0.0000
      6 C           7.3457    4.8016    2.6663 C.ar    1  UNL1        0.0000
      7 C           8.0180    5.9795    2.1744 C.ar    1  UNL1        0.0000
      8 C           7.8878    6.2958    0.8006 C.ar    1  UNL1        0.0000
      9 C           7.1628    5.4621   -0.0233 C.ar    1  UNL1        0.0000
     10 C           6.5521    4.3000    0.4686 C.ar    1  UNL1        0.0000
     11 C           6.6318    3.9419    1.7958 C.ar    1  UNL1        0.0000
     12 C           6.0106    2.7082    2.2974 C.ar    1  UNL1        0.0000
     13 C           6.7183    1.8735    3.1619 C.ar    1  UNL1        0.0000
     14 C           6.1614    0.6947    3.6278 C.ar    1  UNL1        0.0000
     15 C           4.8751    0.3509    3.2269 C.ar    1  UNL1        0.0000
     16 C           4.1520    1.1623    2.3654 C.ar    1  UNL1        0.0000
     17 C           4.7298    2.3371    1.9042 C.ar    1  UNL1        0.0000
     18 C          10.1720    9.2592    1.8796 C.3     1  UNL1        0.0000
     19 C           8.2420    7.9181   -0.9177 C.3     1  UNL1        0.0000
     20 C           8.3817    6.3430    5.8933 C.3     1  UNL1        0.0000
     21 C           6.9287   -0.2044    4.5514 C.3     1  UNL1        0.0000
     22 C           2.7573    0.7929    1.9557 C.3     1  UNL1        0.0000
     23 H           6.9331    4.1583    4.7576 H       1  UNL1        0.0000
     24 H           7.0468    5.6906   -1.0710 H       1  UNL1        0.0000
     25 H           6.0175    3.6684   -0.2251 H       1  UNL1        0.0000
     26 H           7.7302    2.1431    3.4488 H       1  UNL1        0.0000
     27 H           4.4347   -0.5671    3.5911 H       1  UNL1        0.0000
     28 H           4.1705    2.9825    1.2425 H       1  UNL1        0.0000
     29 H          10.5385    8.8461    0.9523 H       1  UNL1        0.0000
     30 H          10.8674   10.0306    2.1965 H       1  UNL1        0.0000
     31 H           9.2222    9.7392    1.6735 H       1  UNL1        0.0000
     32 H           8.6574    7.2413   -1.6730 H       1  UNL1        0.0000
     33 H           8.7388    8.8846   -0.9917 H       1  UNL1        0.0000
     34 H           7.1705    8.0467   -1.0984 H       1  UNL1        0.0000
     35 H           9.4036    6.6554    6.0960 H       1  UNL1        0.0000
     36 H           8.1327    5.4990    6.5386 H       1  UNL1        0.0000
     37 H           7.7184    7.1696    6.1562 H       1  UNL1        0.0000
     38 H           7.0013   -1.2074    4.1333 H       1  UNL1        0.0000
     39 H           6.4213   -0.2821    5.5127 H       1  UNL1        0.0000
     40 H           7.9332    0.1775    4.7176 H       1  UNL1        0.0000
     41 H           2.5600    1.1026    0.9317 H       1  UNL1        0.0000
     42 H           2.0348    1.2928    2.6019 H       1  UNL1        0.0000
     43 H           2.5984   -0.2798    2.0373 H       1  UNL1        0.0000
     44 O          11.4270    7.4595    6.2289 O.3     1  UNL1        0.0000
     45 C          11.3629    6.7069    3.3209 C.3     1  UNL1        0.0000
     46 C          11.7357    5.9612    2.1613 C.2     1  UNL1        0.0000
     47 C          12.4548    4.8121    2.5352 C.2     1  UNL1        0.0000
     48 C          12.5740    4.8016    3.9483 C.ar    1  UNL1        0.0000
     49 C          11.9017    5.9795    4.4402 C.ar    1  UNL1        0.0000
     50 C          12.0319    6.2958    5.8140 C.ar    1  UNL1        0.0000
     51 C          12.7569    5.4621    6.6379 C.ar    1  UNL1        0.0000
     52 C          13.3676    4.3000    6.1460 C.ar    1  UNL1        0.0000
     53 C          13.2879    3.9419    4.8188 C.ar    1  UNL1        0.0000
     54 C          13.9092    2.7082    4.3172 C.ar    1  UNL1        0.0000
     55 C          13.2015    1.8735    3.4527 C.ar    1  UNL1        0.0000
     56 C          13.7584    0.6947    2.9868 C.ar    1  UNL1        0.0000
     57 C          15.0446    0.3509    3.3878 C.ar    1  UNL1        0.0000
     58 C          15.7677    1.1622    4.2493 C.ar    1  UNL1        0.0000
     59 C          15.1899    2.3370    4.7104 C.ar    1  UNL1        0.0000
     60 C           9.7477    9.2592    4.7350 C.3     1  UNL1        0.0000
     61 C          11.6777    7.9181    7.5323 C.3     1  UNL1        0.0000
     62 C          11.5380    6.3430    0.7213 C.3     1  UNL1        0.0000
     63 C          12.9911   -0.2043    2.0631 C.3     1  UNL1        0.0000
     64 C          17.1624    0.7929    4.6591 C.3     1  UNL1        0.0000
     65 H          12.9866    4.1583    1.8571 H       1  UNL1        0.0000
     66 H          12.8729    5.6906    7.6856 H       1  UNL1        0.0000
     67 H          13.9023    3.6684    6.8397 H       1  UNL1        0.0000
     68 H          12.1896    2.1431    3.1657 H       1  UNL1        0.0000
     69 H          15.4850   -0.5671    3.0236 H       1  UNL1        0.0000
     70 H          15.7492    2.9825    5.3722 H       1  UNL1        0.0000
     71 H           9.3812    8.8461    5.6623 H       1  UNL1        0.0000
     72 H           9.0524   10.0307    4.4181 H       1  UNL1        0.0000
     73 H          10.6976    9.7392    4.9412 H       1  UNL1        0.0000
     74 H          11.2623    7.2413    8.2876 H       1  UNL1        0.0000
     75 H          11.1810    8.8846    7.6063 H       1  UNL1        0.0000
     76 H          12.7493    8.0467    7.7130 H       1  UNL1        0.0000
     77 H          10.5161    6.6554    0.5186 H       1  UNL1        0.0000
     78 H          11.7870    5.4990    0.0760 H       1  UNL1        0.0000
     79 H          12.2013    7.1696    0.4584 H       1  UNL1        0.0000
     80 H          12.9190   -1.2075    2.4809 H       1  UNL1        0.0000
     81 H          13.4983   -0.2816    1.1017 H       1  UNL1        0.0000
     82 H          11.9864    0.1773    1.8974 H       1  UNL1        0.0000
     83 H          17.3596    1.1026    5.6831 H       1  UNL1        0.0000
     84 H          17.8850    1.2927    4.0129 H       1  UNL1        0.0000
     85 H          17.3212   -0.2799    4.5775 H       1  UNL1        0.0000
@<TRIPOS>BOND
     1    32    19    1
     2    34    19    1
     3    24     9    1
     4    33    19    1
     5    19     2    1
     6    25    10    1
     7     9    10   ar
     8     9     8   ar
     9    78    62    1
    10     2     8    1
    11    79    62    1
    12    10    11   ar
    13    77    62    1
    14    62    46    1
    15     8     7   ar
    16    41    22    1
    17    29    18    1
    18    81    63    1
    19    28    17    1
    20    31    18    1
    21    11    12    1
    22    11     6   ar
    23    65    47    1
    24    18    30    1
    25    18     1    1
    26    82    63    1
    27    17    12   ar
    28    17    16   ar
    29    22    43    1
    30    22    16    1
    31    22    42    1
    32    63    80    1
    33    63    56    1
    34    46    47    2
    35    46    45    1
    36     7     6   ar
    37     7     3    1
    38    12    13   ar
    39    16    15   ar
    40    47    48    1
    41     6     5    1
    42    56    57   ar
    43    56    55   ar
    44    69    57    1
    45    13    26    1
    46    13    14   ar
    47    68    55    1
    48    15    27    1
    49    15    14   ar
    50     3     1    1
    51     3     4    1
    52     1    45    1
    53     1    60    1
    54    45    49    1
    55    57    58   ar
    56    55    54   ar
    57    14    21    1
    58    48    49   ar
    59    48    53   ar
    60    84    64    1
    61     5     4    2
    62     5    23    1
    63    38    21    1
    64    58    64    1
    65    58    59   ar
    66    54    59   ar
    67    54    53    1
    68    72    60    1
    69    49    50   ar
    70     4    20    1
    71    21    40    1
    72    21    39    1
    73    85    64    1
    74    64    83    1
    75    59    70    1
    76    60    73    1
    77    60    71    1
    78    53    52   ar
    79    50    44    1
    80    50    51   ar
    81    20    35    1
    82    20    37    1
    83    20    36    1
    84    52    51   ar
    85    52    67    1
    86    44    61    1
    87    51    66    1
    88    61    75    1
    89    61    76    1
    90    61    74    1
