@<TRIPOS>MOLECULE
2,3,4,5,6,14,15,16,17,18
 53 56 0 0 0
SMALL
GASTEIGER

@<TRIPOS>ATOM
      1 SI          6.0858    4.5186    2.9763 Si      1  UNL1        0.0000
      2 C           5.1259    5.1874    4.4683 C.3     1  UNL1        0.0000
      3 C           5.5634    6.3447    5.1744 C.3     1  UNL1        0.0000
      4 C           4.4663    6.8992    5.8798 C.2     1  UNL1        0.0000
      5 C           3.3283    6.1003    5.5804 C.2     1  UNL1        0.0000
      6 C           3.7233    5.0677    4.7031 C.3     1  UNL1        0.0000
      7 C           2.7900    3.9922    4.2184 C.3     1  UNL1        0.0000
      8 C           4.4709    8.0945    6.7256 C.ar    1  UNL1        0.0000
      9 C           5.5696    8.4232    7.5178 C.ar    1  UNL1        0.0000
     10 C           5.5568    9.5683    8.2923 C.ar    1  UNL1        0.0000
     11 C           4.4509   10.4013    8.2865 C.ar    1  UNL1        0.0000
     12 C           3.3547   10.0855    7.4992 C.ar    1  UNL1        0.0000
     13 C           3.3598    8.9426    6.7232 C.ar    1  UNL1        0.0000
     14 C           5.2959    5.7937    1.8196 C.3     1  UNL1        0.0000
     15 C           3.9185    5.7105    1.4634 C.3     1  UNL1        0.0000
     16 C           3.4888    6.9732    0.9722 C.3     1  UNL1        0.0000
     17 C           4.5976    7.8585    1.0874 C.2     1  UNL1        0.0000
     18 C           5.6923    7.1474    1.6197 C.2     1  UNL1        0.0000
     19 C           7.0549    7.7258    1.8784 C.3     1  UNL1        0.0000
     20 C           2.1750    7.2791    0.4080 C.ar    1  UNL1        0.0000
     21 C           1.9816    8.3924   -0.4125 C.ar    1  UNL1        0.0000
     22 C           0.7358    8.6747   -0.9392 C.ar    1  UNL1        0.0000
     23 C          -0.3436    7.8531   -0.6622 C.ar    1  UNL1        0.0000
     24 C          -0.1669    6.7442    0.1492 C.ar    1  UNL1        0.0000
     25 C           1.0756    6.4585    0.6789 C.ar    1  UNL1        0.0000
     26 C           5.7081    2.7233    2.4480 C.3     1  UNL1        0.0000
     27 C           7.9668    4.6619    3.2470 C.3     1  UNL1        0.0000
     28 H           6.5892    6.6875    5.2500 H       1  UNL1        0.0000
     29 H           2.3515    6.1920    6.0413 H       1  UNL1        0.0000
     30 H           2.4370    3.3934    5.0604 H       1  UNL1        0.0000
     31 H           1.9111    4.4385    3.7423 H       1  UNL1        0.0000
     32 H           3.2837    3.3245    3.5174 H       1  UNL1        0.0000
     33 H           6.4309    7.7706    7.5311 H       1  UNL1        0.0000
     34 H           6.4145    9.8134    8.9018 H       1  UNL1        0.0000
     35 H           4.4453   11.2980    8.8881 H       1  UNL1        0.0000
     36 H           2.4960   10.7404    7.4827 H       1  UNL1        0.0000
     37 H           2.5124    8.7156    6.0843 H       1  UNL1        0.0000
     38 H           3.3609    4.7863    1.3746 H       1  UNL1        0.0000
     39 H           4.6269    8.8934    0.7672 H       1  UNL1        0.0000
     40 H           7.1689    8.6648    1.3387 H       1  UNL1        0.0000
     41 H           7.1993    7.9381    2.9432 H       1  UNL1        0.0000
     42 H           7.8333    7.0390    1.5490 H       1  UNL1        0.0000
     43 H           2.8153    9.0382   -0.6444 H       1  UNL1        0.0000
     44 H           0.6060    9.5428   -1.5691 H       1  UNL1        0.0000
     45 H          -1.3172    8.0773   -1.0716 H       1  UNL1        0.0000
     46 H          -1.0064    6.1035    0.3770 H       1  UNL1        0.0000
     47 H           1.1905    5.6037    1.3329 H       1  UNL1        0.0000
     48 H           5.6201    2.0707    3.3102 H       1  UNL1        0.0000
     49 H           4.7986    2.6352    1.8638 H       1  UNL1        0.0000
     50 H           6.5197    2.3449    1.8361 H       1  UNL1        0.0000
     51 H           8.2979    3.8907    3.9346 H       1  UNL1        0.0000
     52 H           8.5019    4.5163    2.3147 H       1  UNL1        0.0000
     53 H           8.2659    5.6194    3.6574 H       1  UNL1        0.0000
@<TRIPOS>BOND
     1    44    22    1
     2    45    23    1
     3    22    23   ar
     4    22    21   ar
     5    23    24   ar
     6    43    21    1
     7    21    20   ar
     8    24    46    1
     9    24    25   ar
    10    20    25   ar
    11    20    16    1
    12    25    47    1
    13    39    17    1
    14    16    17    1
    15    16    15    1
    16    17    18    2
    17    40    19    1
    18    38    15    1
    19    15    14    1
    20    42    19    1
    21    18    14    1
    22    18    19    1
    23    14     1    1
    24    50    26    1
    25    49    26    1
    26    19    41    1
    27    52    27    1
    28    26     1    1
    29    26    48    1
    30     1    27    1
    31     1     2    1
    32    27    53    1
    33    27    51    1
    34    32     7    1
    35    31     7    1
    36     7     6    1
    37     7    30    1
    38     2     6    1
    39     2     3    1
    40     6     5    1
    41     3    28    1
    42     3     4    1
    43     5     4    2
    44     5    29    1
    45     4     8    1
    46    37    13    1
    47    13     8   ar
    48    13    12   ar
    49     8     9   ar
    50    36    12    1
    51    12    11   ar
    52     9    33    1
    53     9    10   ar
    54    11    10   ar
    55    11    35    1
    56    10    34    1
