@<TRIPOS>MOLECULE
2,3,12,13,14,17,26,27,28
 57 62 0 0 0
SMALL
GASTEIGER

@<TRIPOS>ATOM
      1 SI         -2.3382   -8.4236    3.1712 Si      1  UNL1        0.0000
      2 C          -1.6317   -6.9765    2.1759 C.3     1  UNL1        0.0000
      3 C          -2.4054   -6.1997    1.2475 C.ar    1  UNL1        0.0000
      4 C          -3.5581   -6.5138    0.4852 C.ar    1  UNL1        0.0000
      5 C          -4.0246   -5.6278   -0.4378 C.ar    1  UNL1        0.0000
      6 C          -3.3823   -4.3804   -0.6830 C.ar    1  UNL1        0.0000
      7 C          -3.8589   -3.4992   -1.6665 C.ar    1  UNL1        0.0000
      8 C          -3.2174   -2.3151   -1.9275 C.ar    1  UNL1        0.0000
      9 C          -2.0660   -1.9724   -1.2150 C.ar    1  UNL1        0.0000
     10 C          -1.5721   -2.8146   -0.2499 C.ar    1  UNL1        0.0000
     11 C          -2.2163   -4.0272    0.0449 C.ar    1  UNL1        0.0000
     12 C          -1.7309   -4.9518    1.0196 C.ar    1  UNL1        0.0000
     13 C          -0.5566   -4.9553    1.8162 C.2     1  UNL1        0.0000
     14 C          -0.4963   -6.1769    2.5131 C.2     1  UNL1        0.0000
     15 C           0.6743   -6.5779    3.3674 C.3     1  UNL1        0.0000
     16 C          -3.1988   -7.3207    4.4471 C.3     1  UNL1        0.0000
     17 C          -2.5127   -6.6827    5.5364 C.ar    1  UNL1        0.0000
     18 C          -1.3250   -7.0212    6.2315 C.ar    1  UNL1        0.0000
     19 C          -0.9592   -6.3141    7.3364 C.ar    1  UNL1        0.0000
     20 C          -1.7424   -5.2362    7.8399 C.ar    1  UNL1        0.0000
     21 C          -1.3673   -4.5480    9.0047 C.ar    1  UNL1        0.0000
     22 C          -2.1427   -3.5353    9.5098 C.ar    1  UNL1        0.0000
     23 C          -3.3303   -3.1778    8.8676 C.ar    1  UNL1        0.0000
     24 C          -3.7268   -3.8340    7.7288 C.ar    1  UNL1        0.0000
     25 C          -2.9461   -4.8671    7.1852 C.ar    1  UNL1        0.0000
     26 C          -3.3264   -5.6022    6.0208 C.ar    1  UNL1        0.0000
     27 C          -4.4989   -5.5660    5.2227 C.2     1  UNL1        0.0000
     28 C          -4.4227   -6.6034    4.2742 C.2     1  UNL1        0.0000
     29 C          -5.5473   -6.9395    3.3343 C.3     1  UNL1        0.0000
     30 C          -1.0450   -9.6457    3.8806 C.3     1  UNL1        0.0000
     31 C          -3.4835   -9.6100    2.1965 C.3     1  UNL1        0.0000
     32 H          -0.6764   -2.5508    0.2933 H       1  UNL1        0.0000
     33 H          -4.6499   -3.5604    7.2389 H       1  UNL1        0.0000
     34 H          -5.3708   -4.9460    5.3915 H       1  UNL1        0.0000
     35 H          -1.5628   -1.0410   -1.4312 H       1  UNL1        0.0000
     36 H          -0.7113  -10.3168    3.0957 H       1  UNL1        0.0000
     37 H          -3.9386   -2.3834    9.2753 H       1  UNL1        0.0000
     38 H          -4.0273   -7.4812    0.5913 H       1  UNL1        0.0000
     39 H           0.2350   -4.2163    1.7951 H       1  UNL1        0.0000
     40 H          -0.0622   -6.5799    7.8786 H       1  UNL1        0.0000
     41 H          -1.5008  -10.2542    4.6551 H       1  UNL1        0.0000
     42 H          -0.4533   -4.8347    9.5056 H       1  UNL1        0.0000
     43 H          -3.5963   -1.6462   -2.6866 H       1  UNL1        0.0000
     44 H           0.4545   -6.4666    4.4327 H       1  UNL1        0.0000
     45 H          -4.8949   -5.8705   -1.0319 H       1  UNL1        0.0000
     46 H          -1.8412   -3.0142   10.4069 H       1  UNL1        0.0000
     47 H          -6.4727   -6.4949    3.6999 H       1  UNL1        0.0000
     48 H           1.5291   -5.9430    3.1351 H       1  UNL1        0.0000
     49 H          -0.7457   -7.8794    5.9229 H       1  UNL1        0.0000
     50 H          -3.7292  -10.4672    2.8152 H       1  UNL1        0.0000
     51 H           0.9575   -7.6108    3.1713 H       1  UNL1        0.0000
     52 H          -4.7438   -3.7729   -2.2239 H       1  UNL1        0.0000
     53 H          -5.6908   -8.0171    3.2755 H       1  UNL1        0.0000
     54 H          -4.4157   -9.1711    1.8656 H       1  UNL1        0.0000
     55 H          -0.1651   -9.1793    4.3041 H       1  UNL1        0.0000
     56 H          -2.9648   -9.9817    1.3186 H       1  UNL1        0.0000
     57 H          -5.3637   -6.5504    2.3290 H       1  UNL1        0.0000
@<TRIPOS>BOND
     1    43     8    1
     2    52     7    1
     3     8     7   ar
     4     8     9   ar
     5     7     6   ar
     6    35     9    1
     7     9    10   ar
     8    45     5    1
     9     6     5   ar
    10     6    11   ar
    11     5     4   ar
    12    10    11   ar
    13    10    32    1
    14    11    12   ar
    15     4    38    1
    16     4     3   ar
    17    12     3   ar
    18    12    13    1
    19     3     2    1
    20    56    31    1
    21    39    13    1
    22    13    14    2
    23    54    31    1
    24     2    14    1
    25     2     1    1
    26    31    50    1
    27    31     1    1
    28    57    29    1
    29    14    15    1
    30    36    30    1
    31    48    15    1
    32     1    30    1
    33     1    16    1
    34    51    15    1
    35    53    29    1
    36    29    47    1
    37    29    28    1
    38    15    44    1
    39    30    55    1
    40    30    41    1
    41    28    16    1
    42    28    27    2
    43    16    17    1
    44    27    34    1
    45    27    26    1
    46    17    26   ar
    47    17    18   ar
    48    49    18    1
    49    26    25   ar
    50    18    19   ar
    51    25    24   ar
    52    25    20   ar
    53    33    24    1
    54    19    20   ar
    55    19    40    1
    56    24    23   ar
    57    20    21   ar
    58    23    37    1
    59    23    22   ar
    60    21    42    1
    61    21    22   ar
    62    22    46    1
