@<TRIPOS>MOLECULE
4,5,6,7,8,33,34,35,36,37
 61 62 0 0 0
SMALL
GASTEIGER

@<TRIPOS>ATOM
      1 O           0.0927   -0.7968   10.4970 O.3     1  UNL1        0.0000
      2 SI          0.8961   -1.4304   11.7825 Si      1  UNL1        0.0000
      3 SI          0.0827   -0.9182    8.8583 Si      1  UNL1        0.0000
      4 C           2.2839   -2.5262   11.1354 C.3     1  UNL1        0.0000
      5 C           2.6559   -3.8215   11.6170 C.2     1  UNL1        0.0000
      6 C           4.0561   -3.9801   11.4818 C.2     1  UNL1        0.0000
      7 C           4.5780   -2.8070   10.8937 C.2     1  UNL1        0.0000
      8 C           3.4979   -1.9329   10.6255 C.2     1  UNL1        0.0000
      9 C           1.7711   -4.8162   12.3058 C.3     1  UNL1        0.0000
     10 H           1.8695   -5.8000   11.8416 H       1  UNL1        0.0000
     11 H           0.7318   -4.5078   12.2660 H       1  UNL1        0.0000
     12 H           2.0631   -4.9108   13.3537 H       1  UNL1        0.0000
     13 C           4.8796   -5.1298   11.9704 C.3     1  UNL1        0.0000
     14 H           5.6112   -5.4272   11.2182 H       1  UNL1        0.0000
     15 H           4.2549   -5.9895   12.1992 H       1  UNL1        0.0000
     16 H           5.4215   -4.8395   12.8735 H       1  UNL1        0.0000
     17 C           6.0335   -2.4925   10.7449 C.3     1  UNL1        0.0000
     18 H           6.4251   -2.1407   11.7030 H       1  UNL1        0.0000
     19 H           6.1958   -1.7179    9.9989 H       1  UNL1        0.0000
     20 H           6.5978   -3.3766   10.4523 H       1  UNL1        0.0000
     21 C           3.6748   -0.5325   10.1179 C.3     1  UNL1        0.0000
     22 H           4.2339    0.0617   10.8442 H       1  UNL1        0.0000
     23 H           2.7119   -0.0583    9.9552 H       1  UNL1        0.0000
     24 H           4.2396   -0.5340    9.1822 H       1  UNL1        0.0000
     25 C           1.6666    0.0284   12.7484 C.3     1  UNL1        0.0000
     26 H           1.8001    0.9016   12.1190 H       1  UNL1        0.0000
     27 H           2.6340   -0.2348   13.1639 H       1  UNL1        0.0000
     28 H           1.0273    0.3203   13.5753 H       1  UNL1        0.0000
     29 C          -0.4171   -2.2148   12.9196 C.3     1  UNL1        0.0000
     30 H          -1.1113   -1.4391   13.2280 H       1  UNL1        0.0000
     31 H           0.0381   -2.6206   13.8163 H       1  UNL1        0.0000
     32 H          -1.0042   -2.9999   12.4557 H       1  UNL1        0.0000
     33 C           1.1235   -2.4180    8.3981 C.2     1  UNL1        0.0000
     34 C           2.0552   -2.5359    7.3244 C.2     1  UNL1        0.0000
     35 C           2.1347   -3.8975    6.9329 C.2     1  UNL1        0.0000
     36 C           1.2427   -4.6408    7.7435 C.2     1  UNL1        0.0000
     37 C           0.6606   -3.7554    8.6779 C.3     1  UNL1        0.0000
     38 C           2.7222   -1.4087    6.5964 C.3     1  UNL1        0.0000
     39 H           3.7744   -1.6329    6.4173 H       1  UNL1        0.0000
     40 H           2.6530   -0.4855    7.1627 H       1  UNL1        0.0000
     41 H           2.2398   -1.2582    5.6280 H       1  UNL1        0.0000
     42 C           2.9104   -4.4599    5.7823 C.3     1  UNL1        0.0000
     43 H           2.2313   -4.7211    4.9675 H       1  UNL1        0.0000
     44 H           3.4428   -5.3634    6.0847 H       1  UNL1        0.0000
     45 H           3.6378   -3.7413    5.4127 H       1  UNL1        0.0000
     46 C           0.8400   -6.0658    7.5222 C.3     1  UNL1        0.0000
     47 H           0.5869   -6.5566    8.4602 H       1  UNL1        0.0000
     48 H           1.6385   -6.6297    7.0449 H       1  UNL1        0.0000
     49 H          -0.0383   -6.0930    6.8716 H       1  UNL1        0.0000
     50 C          -0.4748   -4.1505    9.5731 C.3     1  UNL1        0.0000
     51 H          -1.3627   -4.3528    8.9692 H       1  UNL1        0.0000
     52 H          -0.7119   -3.3577   10.2748 H       1  UNL1        0.0000
     53 H          -0.2359   -5.0625   10.1226 H       1  UNL1        0.0000
     54 C          -1.7260   -1.2225    8.3236 C.3     1  UNL1        0.0000
     55 H          -2.2717   -1.8187    9.0464 H       1  UNL1        0.0000
     56 H          -1.7731   -1.7330    7.3668 H       1  UNL1        0.0000
     57 H          -2.2540   -0.2803    8.2164 H       1  UNL1        0.0000
     58 C           0.5786    0.7901    8.1737 C.3     1  UNL1        0.0000
     59 H          -0.1095    1.5311    8.5696 H       1  UNL1        0.0000
     60 H           0.4969    0.8145    7.0926 H       1  UNL1        0.0000
     61 H           1.5799    1.1101    8.4418 H       1  UNL1        0.0000
@<TRIPOS>BOND
     1    43    42    1
     2    45    42    1
     3    41    38    1
     4    42    44    1
     5    42    35    1
     6    39    38    1
     7    38    40    1
     8    38    34    1
     9    49    46    1
    10    35    34    1
    11    35    36    2
    12    48    46    1
    13    60    58    1
    14    34    33    2
    15    56    54    1
    16    46    36    1
    17    46    47    1
    18    36    37    1
    19    58    61    1
    20    58    59    1
    21    58     3    1
    22    57    54    1
    23    54     3    1
    24    54    55    1
    25    33    37    1
    26    33     3    1
    27    37    50    1
    28     3     1    1
    29    51    50    1
    30    24    21    1
    31    50    53    1
    32    50    52    1
    33    23    21    1
    34    19    17    1
    35    21     8    1
    36    21    22    1
    37    20    17    1
    38     1     2    1
    39     8     7    2
    40     8     4    1
    41    17     7    1
    42    17    18    1
    43     7     6    1
    44     4     5    1
    45     4     2    1
    46    14    13    1
    47     6     5    2
    48     6    13    1
    49     5     9    1
    50     2    25    1
    51     2    29    1
    52    10     9    1
    53    13    15    1
    54    13    16    1
    55    26    25    1
    56    11     9    1
    57     9    12    1
    58    32    29    1
    59    25    27    1
    60    25    28    1
    61    29    30    1
    62    29    31    1
