@<TRIPOS>MOLECULE
6,7,9,11,37,38,39,41,43
 44 46 0 0 0
SMALL
GASTEIGER

@<TRIPOS>ATOM
      1 SI          2.4446    1.5747    4.6574 Si      1  UNL1        0.0000
      2 SI          4.0437    4.3487    2.6308 Si      1  UNL1        0.0000
      3 SI          0.6591    2.6846    2.2563 Si      1  UNL1        0.0000
      4 O           1.4085    2.4102    3.6931 O.3     1  UNL1        0.0000
      5 C           4.0786    1.5586    3.7318 C.3     1  UNL1        0.0000
      6 C           4.7797    2.6762    3.1544 C.3     1  UNL1        0.0000
      7 C           5.9490    2.1550    2.5377 C.3     1  UNL1        0.0000
      8 H           6.7271    2.7409    2.0616 H       1  UNL1        0.0000
      9 C           6.0178    0.7694    2.7793 C.2     1  UNL1        0.0000
     10 H           6.8406    0.1184    2.5118 H       1  UNL1        0.0000
     11 C           4.8675    0.3983    3.4959 C.2     1  UNL1        0.0000
     12 H           4.6613   -0.5891    3.8946 H       1  UNL1        0.0000
     13 C           2.5579    2.5559    6.2873 C.3     1  UNL1        0.0000
     14 H           2.9799    1.9392    7.0732 H       1  UNL1        0.0000
     15 H           1.5732    2.8748    6.6112 H       1  UNL1        0.0000
     16 H           3.1807    3.4385    6.1948 H       1  UNL1        0.0000
     17 C           1.7679   -0.1760    4.9628 C.3     1  UNL1        0.0000
     18 H           2.3900   -0.7238    5.6630 H       1  UNL1        0.0000
     19 H           1.7143   -0.7473    4.0407 H       1  UNL1        0.0000
     20 H           0.7676   -0.1302    5.3819 H       1  UNL1        0.0000
     21 C           5.4573    5.5358    2.1283 C.3     1  UNL1        0.0000
     22 H           6.1411    5.0968    1.4102 H       1  UNL1        0.0000
     23 H           6.0377    5.8274    2.9968 H       1  UNL1        0.0000
     24 H           5.0558    6.4412    1.6865 H       1  UNL1        0.0000
     25 C           2.9497    5.2792    3.8762 C.3     1  UNL1        0.0000
     26 H           2.1193    4.6782    4.2205 H       1  UNL1        0.0000
     27 H           2.5535    6.1828    3.4253 H       1  UNL1        0.0000
     28 H           3.5353    5.5792    4.7386 H       1  UNL1        0.0000
     29 C          -0.5310    1.2534    1.8668 C.3     1  UNL1        0.0000
     30 H           0.0033    0.3168    1.7372 H       1  UNL1        0.0000
     31 H          -1.0976    1.4459    0.9616 H       1  UNL1        0.0000
     32 H          -1.2431    1.1189    2.6749 H       1  UNL1        0.0000
     33 C          -0.2903    4.3243    2.4611 C.3     1  UNL1        0.0000
     34 H          -1.0355    4.4317    1.6806 H       1  UNL1        0.0000
     35 H           0.3629    5.1880    2.4102 H       1  UNL1        0.0000
     36 H          -0.8055    4.3513    3.4150 H       1  UNL1        0.0000
     37 C           2.0429    2.8261    0.9944 C.3     1  UNL1        0.0000
     38 C           3.2260    3.6441    1.0663 C.3     1  UNL1        0.0000
     39 C           3.9787    3.3842   -0.1106 C.2     1  UNL1        0.0000
     40 H           4.8982    3.8828   -0.3957 H       1  UNL1        0.0000
     41 C           3.2615    2.4887   -0.9270 C.2     1  UNL1        0.0000
     42 H           3.5405    2.1780   -1.9259 H       1  UNL1        0.0000
     43 C           2.0843    2.1327   -0.2474 C.3     1  UNL1        0.0000
     44 H           1.2871    1.5134   -0.6442 H       1  UNL1        0.0000
@<TRIPOS>BOND
     1    42    41    1
     2    41    43    1
     3    41    39    2
     4    44    43    1
     5    40    39    1
     6    43    37    1
     7    39    38    1
     8    31    29    1
     9    37    38    1
    10    37     3    1
    11    38     2    1
    12    22    21    1
    13    34    33    1
    14    24    21    1
    15    30    29    1
    16    29     3    1
    17    29    32    1
    18     8     7    1
    19    21     2    1
    20    21    23    1
    21     3    33    1
    22     3     4    1
    23    35    33    1
    24    33    36    1
    25    10     9    1
    26     7     9    1
    27     7     6    1
    28     2     6    1
    29     2    25    1
    30     9    11    2
    31     6     5    1
    32    27    25    1
    33    11     5    1
    34    11    12    1
    35     4     1    1
    36     5     1    1
    37    25    26    1
    38    25    28    1
    39    19    17    1
    40     1    17    1
    41     1    13    1
    42    17    20    1
    43    17    18    1
    44    16    13    1
    45    13    15    1
    46    13    14    1
