@<TRIPOS>MOLECULE
2,3,4,5,6,17,18,19,20,21
 27 28 0 0 0
SMALL
GASTEIGER

@<TRIPOS>ATOM
      1 SI          2.9131    2.2092    0.6028 Si      1  UNL1        0.0000
      2 C           2.1611    0.8676    1.7010 C.3     1  UNL1        0.0000
      3 C           0.7627    0.6486    1.8046 C.3     1  UNL1        0.0000
      4 C           0.5005   -0.0619    2.9876 C.2     1  UNL1        0.0000
      5 C           1.7175   -0.2316    3.6687 C.2     1  UNL1        0.0000
      6 C           2.7387    0.3625    2.8898 C.3     1  UNL1        0.0000
      7 C           2.2717    2.2071   -1.1896 C.3     1  UNL1        0.0000
      8 C           4.8156    2.2383    0.6815 C.3     1  UNL1        0.0000
      9 H           0.0381    0.8448    1.0232 H       1  UNL1        0.0000
     10 H          -0.4572   -0.4632    3.2929 H       1  UNL1        0.0000
     11 H           1.8587   -0.8141    4.5702 H       1  UNL1        0.0000
     12 H           3.8012    0.2837    3.0843 H       1  UNL1        0.0000
     13 H           1.1878    2.2135   -1.2355 H       1  UNL1        0.0000
     14 H           2.6308    3.0794   -1.7254 H       1  UNL1        0.0000
     15 H           5.1764    2.2345    1.7055 H       1  UNL1        0.0000
     16 H           5.2342    1.3742    0.1771 H       1  UNL1        0.0000
     17 C           2.1201    3.5162    1.7138 C.3     1  UNL1        0.0000
     18 C           0.7155    3.6905    1.8185 C.2     1  UNL1        0.0000
     19 C           0.4306    4.3794    3.0088 C.2     1  UNL1        0.0000
     20 C           1.6414    4.5794    3.6930 C.3     1  UNL1        0.0000
     21 C           2.6810    4.0260    2.9086 C.3     1  UNL1        0.0000
     22 H           2.6204    1.3272   -1.7198 H       1  UNL1        0.0000
     23 H           5.2067    3.1244    0.1934 H       1  UNL1        0.0000
     24 H          -0.0022    3.4800    1.0346 H       1  UNL1        0.0000
     25 H          -0.5392    4.7475    3.3176 H       1  UNL1        0.0000
     26 H           1.7636    5.1567    4.6006 H       1  UNL1        0.0000
     27 H           3.7405    4.1358    3.1048 H       1  UNL1        0.0000
@<TRIPOS>BOND
     1    14     7    1
     2    22     7    1
     3    13     7    1
     4     7     1    1
     5    16     8    1
     6    23     8    1
     7     1     8    1
     8     1     2    1
     9     1    17    1
    10     8    15    1
    11     9     3    1
    12    24    18    1
    13     2     3    1
    14     2     6    1
    15    17    18    1
    16    17    21    1
    17     3     4    1
    18    18    19    2
    19     6    12    1
    20     6     5    1
    21    21    27    1
    22    21    20    1
    23     4    10    1
    24     4     5    2
    25    19    25    1
    26    19    20    1
    27     5    11    1
    28    20    26    1
