@<TRIPOS>MOLECULE
3,4,5,6,11,41,42,43,67,69
 80 83 0 0 0
SMALL
GASTEIGER

@<TRIPOS>ATOM
      1 SI         -4.8051    5.7815    4.4139 Si      1  UNL1        0.0000
      2 O          -3.2052    6.2224    4.2608 O.3     1  UNL1        0.0000
      3 C          -1.6259    7.1772    2.6496 C.3     1  UNL1        0.0000
      4 C          -2.5778    6.2006    3.0435 C.3     1  UNL1        0.0000
      5 C          -2.5520    5.1021    2.1473 C.3     1  UNL1        0.0000
      6 C          -1.6328    5.4375    1.1071 C.ar    1  UNL1        0.0000
      7 C          -1.2820    4.7835   -0.0833 C.ar    1  UNL1        0.0000
      8 C          -0.3989    5.3934   -0.9414 C.ar    1  UNL1        0.0000
      9 C           0.1373    6.6582   -0.6577 C.ar    1  UNL1        0.0000
     10 C          -0.1777    7.3243    0.5024 C.ar    1  UNL1        0.0000
     11 C          -1.0498    6.7185    1.4207 C.ar    1  UNL1        0.0000
     12 C          -1.3361    8.4745    3.3563 C.3     1  UNL1        0.0000
     13 C          -5.1394    3.9412    4.0375 C.3     1  UNL1        0.0000
     14 C          -5.7788    6.8701    3.1802 C.3     1  UNL1        0.0000
     15 C          -5.1741    6.1736    6.2524 C.3     1  UNL1        0.0000
     16 C          -6.6740    6.0343    6.5088 C.3     1  UNL1        0.0000
     17 C          -4.4220    5.1837    7.1457 C.3     1  UNL1        0.0000
     18 C          -4.7505    7.5982    6.6150 C.3     1  UNL1        0.0000
     19 H          -4.2865    3.3282    4.3194 H       1  UNL1        0.0000
     20 H          -5.3517    3.7667    2.9857 H       1  UNL1        0.0000
     21 H          -5.9984    3.5792    4.5934 H       1  UNL1        0.0000
     22 H          -5.4034    6.7337    2.1689 H       1  UNL1        0.0000
     23 H          -5.6886    7.9264    3.4177 H       1  UNL1        0.0000
     24 H          -6.8346    6.6235    3.1745 H       1  UNL1        0.0000
     25 H          -7.2362    6.7402    5.9029 H       1  UNL1        0.0000
     26 H          -6.8995    6.2276    7.5567 H       1  UNL1        0.0000
     27 H          -7.0191    5.0326    6.2682 H       1  UNL1        0.0000
     28 H          -3.3577    5.1919    6.9204 H       1  UNL1        0.0000
     29 H          -4.7910    4.1730    6.9932 H       1  UNL1        0.0000
     30 H          -4.5564    5.4403    8.1960 H       1  UNL1        0.0000
     31 H          -5.3000    8.3280    6.0240 H       1  UNL1        0.0000
     32 H          -3.6883    7.7289    6.4350 H       1  UNL1        0.0000
     33 H          -4.9491    7.7958    7.6680 H       1  UNL1        0.0000
     34 H          -3.2119    4.2452    2.1668 H       1  UNL1        0.0000
     35 H          -1.7120    3.8198   -0.3179 H       1  UNL1        0.0000
     36 H          -0.1201    4.9029   -1.8615 H       1  UNL1        0.0000
     37 H           0.8032    7.1160   -1.3734 H       1  UNL1        0.0000
     38 H           0.2086    8.3168    0.6908 H       1  UNL1        0.0000
     39 H          -1.4765    9.3234    2.6786 H       1  UNL1        0.0000
     40 H          -2.0399    8.5817    4.1876 H       1  UNL1        0.0000
     41 C           0.4031    7.1774    4.6008 C.3     1  UNL1        0.0000
     42 C           1.3544    6.2002    4.2072 C.3     1  UNL1        0.0000
     43 C           1.3287    5.1024    5.1042 C.3     1  UNL1        0.0000
     44 O           1.9820    6.2211    2.9899 O.3     1  UNL1        0.0000
     45 SI          3.5819    5.7798    2.8388 Si      1  UNL1        0.0000
     46 C           3.9148    3.9387    3.2123 C.3     1  UNL1        0.0000
     47 H           3.0612    3.3269    2.9297 H       1  UNL1        0.0000
     48 H           4.1272    3.7624    4.2638 H       1  UNL1        0.0000
     49 H           4.7733    3.5767    2.6557 H       1  UNL1        0.0000
     50 C           4.5536    6.8659    4.0763 C.3     1  UNL1        0.0000
     51 H           4.1753    6.7286    5.0864 H       1  UNL1        0.0000
     52 H           4.4653    7.9226    3.8399 H       1  UNL1        0.0000
     53 H           5.6091    6.6181    4.0846 H       1  UNL1        0.0000
     54 C           3.9549    6.1751    1.0017 C.3     1  UNL1        0.0000
     55 C           5.4555    6.0378    0.7488 C.3     1  UNL1        0.0000
     56 H           6.0154    6.7437    1.3570 H       1  UNL1        0.0000
     57 H           5.6835    6.2325   -0.2982 H       1  UNL1        0.0000
     58 H           5.8011    5.0363    0.9893 H       1  UNL1        0.0000
     59 C           3.2061    5.1856    0.1051 C.3     1  UNL1        0.0000
     60 H           2.1413    5.1922    0.3279 H       1  UNL1        0.0000
     61 H           3.5760    4.1752    0.2570 H       1  UNL1        0.0000
     62 H           3.3426    5.4439   -0.9445 H       1  UNL1        0.0000
     63 C           3.5305    7.5997    0.6400 C.3     1  UNL1        0.0000
     64 H           4.0774    8.3293    1.2336 H       1  UNL1        0.0000
     65 H           2.4676    7.7287    0.8172 H       1  UNL1        0.0000
     66 H           3.7318    7.7991   -0.4121 H       1  UNL1        0.0000
     67 C           0.4103    5.4389    6.1447 C.ar    1  UNL1        0.0000
     68 C           0.1135    8.4745    3.8935 C.3     1  UNL1        0.0000
     69 C          -0.1724    6.7199    5.8304 C.ar    1  UNL1        0.0000
     70 C           0.0604    4.7862    7.3360 C.ar    1  UNL1        0.0000
     71 C          -0.8214    5.3975    8.1945 C.ar    1  UNL1        0.0000
     72 C          -1.3574    6.6622    7.9102 C.ar    1  UNL1        0.0000
     73 C          -1.0434    7.3270    6.7489 C.ar    1  UNL1        0.0000
     74 H          -1.4294    8.3195    6.5600 H       1  UNL1        0.0000
     75 H          -2.0222    7.1210    8.6260 H       1  UNL1        0.0000
     76 H          -1.0994    4.9081    9.1154 H       1  UNL1        0.0000
     77 H           0.4902    3.8226    7.5712 H       1  UNL1        0.0000
     78 H           0.2541    9.3236    4.5708 H       1  UNL1        0.0000
     79 H           0.8174    8.5811    3.0621 H       1  UNL1        0.0000
     80 H           1.9884    4.2453    5.0850 H       1  UNL1        0.0000
@<TRIPOS>BOND
     1    36     8    1
     2    37     9    1
     3    62    59    1
     4     8     9   ar
     5     8     7   ar
     6     9    10   ar
     7    66    63    1
     8    35     7    1
     9    57    55    1
    10     7     6   ar
    11    59    61    1
    12    59    60    1
    13    59    54    1
    14    10    38    1
    15    10    11   ar
    16    63    65    1
    17    63    54    1
    18    63    64    1
    19    55    58    1
    20    55    54    1
    21    55    56    1
    22    54    45    1
    23     6    11   ar
    24     6     5    1
    25    11     3    1
    26     5    34    1
    27     5     4    1
    28    22    14    1
    29     3     4    1
    30     3    12    1
    31    49    46    1
    32    39    12    1
    33    45    44    1
    34    45    46    1
    35    45    50    1
    36    47    46    1
    37    20    13    1
    38    44    42    1
    39     4     2    1
    40    79    68    1
    41    24    14    1
    42    14    23    1
    43    14     1    1
    44    46    48    1
    45    12    68    1
    46    12    40    1
    47    52    50    1
    48    68    78    1
    49    68    41    1
    50    13    19    1
    51    13     1    1
    52    13    21    1
    53    50    53    1
    54    50    51    1
    55    42    41    1
    56    42    43    1
    57     2     1    1
    58     1    15    1
    59    41    69    1
    60    80    43    1
    61    43    67    1
    62    69    67   ar
    63    69    73   ar
    64    25    16    1
    65    31    18    1
    66    67    70   ar
    67    15    16    1
    68    15    18    1
    69    15    17    1
    70    27    16    1
    71    32    18    1
    72    16    26    1
    73    74    73    1
    74    18    33    1
    75    73    72   ar
    76    28    17    1
    77    29    17    1
    78    17    30    1
    79    70    77    1
    80    70    71   ar
    81    72    71   ar
    82    72    75    1
    83    71    76    1
