@<TRIPOS>MOLECULE
1,2,3,4,9,13,14,15,16,17
 33 35 0 0 0
SMALL
GASTEIGER

@<TRIPOS>ATOM
      1 C           0.5988    4.2248   -2.2490 C.3     1  UNL1        0.0000
      2 C           1.7837    3.5611   -1.8222 C.2     1  UNL1        0.0000
      3 C           1.5245    2.2049   -1.5694 C.2     1  UNL1        0.0000
      4 C           0.1414    1.9719   -1.8183 C.3     1  UNL1        0.0000
      5 C          -0.6564    0.8128   -1.7626 C.2     1  UNL1        0.0000
      6 C          -1.9964    0.9171   -2.0384 C.2     1  UNL1        0.0000
      7 C          -2.5811    2.1517   -2.3727 C.2     1  UNL1        0.0000
      8 C          -1.8346    3.3016   -2.4636 C.2     1  UNL1        0.0000
      9 C          -0.4469    3.2389   -2.2134 C.3     1  UNL1        0.0000
     10 SI          0.3492    6.0979   -2.1717 Si      1  UNL1        0.0000
     11 C           1.9939    7.0244   -2.4295 C.3     1  UNL1        0.0000
     12 C          -1.0068    6.7880   -3.3205 C.3     1  UNL1        0.0000
     13 C          -0.1510    6.0401   -0.3448 C.2     1  UNL1        0.0000
     14 C           0.7762    5.9171    0.7282 C.3     1  UNL1        0.0000
     15 C           0.0852    5.4503    1.8694 C.2     1  UNL1        0.0000
     16 C          -1.2615    5.2400    1.5077 C.2     1  UNL1        0.0000
     17 C          -1.4039    5.5656    0.1406 C.2     1  UNL1        0.0000
     18 H           2.7701    4.0128   -1.7975 H       1  UNL1        0.0000
     19 H           2.2612    1.4484   -1.3300 H       1  UNL1        0.0000
     20 H          -0.2117   -0.1394   -1.5049 H       1  UNL1        0.0000
     21 H          -2.6236    0.0399   -1.9952 H       1  UNL1        0.0000
     22 H          -3.6423    2.1859   -2.5701 H       1  UNL1        0.0000
     23 H          -2.2911    4.2317   -2.7782 H       1  UNL1        0.0000
     24 H           2.7845    6.6436   -1.7909 H       1  UNL1        0.0000
     25 H           1.8746    8.0803   -2.2126 H       1  UNL1        0.0000
     26 H           2.3271    6.9365   -3.4578 H       1  UNL1        0.0000
     27 H          -2.0023    6.6589   -2.9097 H       1  UNL1        0.0000
     28 H          -0.8574    7.8502   -3.4791 H       1  UNL1        0.0000
     29 H          -0.9795    6.3043   -4.2911 H       1  UNL1        0.0000
     30 H           1.8070    6.2559    0.7151 H       1  UNL1        0.0000
     31 H           0.4964    5.3578    2.8678 H       1  UNL1        0.0000
     32 H          -2.0627    4.9589    2.1806 H       1  UNL1        0.0000
     33 H          -2.3464    5.6015   -0.3951 H       1  UNL1        0.0000
@<TRIPOS>BOND
     1    29    12    1
     2    28    12    1
     3    26    11    1
     4    12    27    1
     5    12    10    1
     6    23     8    1
     7    22     7    1
     8     8     7    2
     9     8     9    1
    10    11    25    1
    11    11    10    1
    12    11    24    1
    13     7     6    1
    14     1     9    1
    15     1    10    1
    16     1     2    1
    17     9     4    1
    18    10    13    1
    19     6    21    1
    20     6     5    2
    21     2    18    1
    22     2     3    2
    23     4     5    1
    24     4     3    1
    25     5    20    1
    26     3    19    1
    27    33    17    1
    28    13    17    2
    29    13    14    1
    30    17    16    1
    31    30    14    1
    32    14    15    1
    33    16    15    2
    34    16    32    1
    35    15    31    1
