@<TRIPOS>MOLECULE
2,3,4,5,6,13,14,15,16,17
 53 56 0 0 0
SMALL
GASTEIGER

@<TRIPOS>ATOM
      1 SI         -2.0717    5.2529    8.0214 Si      1  UNL1        0.0000
      2 C          -0.2897    4.6572    8.0565 C.3     1  UNL1        0.0000
      3 C          -0.1061    3.3746    8.6388 C.2     1  UNL1        0.0000
      4 C           1.1388    2.8682    8.2226 C.2     1  UNL1        0.0000
      5 C           1.7262    3.8023    7.3313 C.3     1  UNL1        0.0000
      6 C           0.8367    4.9013    7.2116 C.3     1  UNL1        0.0000
      7 C           3.0979    3.6848    6.7164 C.3     1  UNL1        0.0000
      8 C           4.1598    4.1463    7.7222 C.3     1  UNL1        0.0000
      9 C           3.3708    2.2443    6.2706 C.3     1  UNL1        0.0000
     10 C          -1.0674    2.7597    9.6191 C.3     1  UNL1        0.0000
     11 C          -1.7843    3.8298   10.4504 C.3     1  UNL1        0.0000
     12 C          -2.8254    4.6208    9.6569 C.3     1  UNL1        0.0000
     13 C          -2.5311    4.2016    6.5330 C.3     1  UNL1        0.0000
     14 C          -2.1042    4.7273    5.2842 C.2     1  UNL1        0.0000
     15 C          -2.1098    3.6883    4.3358 C.2     1  UNL1        0.0000
     16 C          -2.4872    2.4876    4.9899 C.3     1  UNL1        0.0000
     17 C          -2.7306    2.7980    6.3530 C.3     1  UNL1        0.0000
     18 C          -2.6981    1.1540    4.3190 C.3     1  UNL1        0.0000
     19 C          -4.0828    1.1185    3.6606 C.3     1  UNL1        0.0000
     20 C          -1.6029    0.8893    3.2804 C.3     1  UNL1        0.0000
     21 C          -1.8176    6.1851    5.0477 C.3     1  UNL1        0.0000
     22 C          -2.6779    7.0800    5.9471 C.3     1  UNL1        0.0000
     23 C          -2.2528    7.0539    7.4160 C.3     1  UNL1        0.0000
     24 H           1.5967    1.9547    8.5791 H       1  UNL1        0.0000
     25 H           1.0691    5.8331    6.7040 H       1  UNL1        0.0000
     26 H          -1.9258    3.8036    3.2755 H       1  UNL1        0.0000
     27 H          -3.1624    2.1126    7.0766 H       1  UNL1        0.0000
     28 H           3.1447    4.3389    5.8352 H       1  UNL1        0.0000
     29 H           5.1523    4.0784    7.2833 H       1  UNL1        0.0000
     30 H           3.9803    5.1770    8.0194 H       1  UNL1        0.0000
     31 H           4.1295    3.5223    8.6127 H       1  UNL1        0.0000
     32 H           4.2934    2.1990    5.6961 H       1  UNL1        0.0000
     33 H           3.4755    1.5876    7.1322 H       1  UNL1        0.0000
     34 H           2.5548    1.8725    5.6446 H       1  UNL1        0.0000
     35 H          -2.6543    0.3658    5.0826 H       1  UNL1        0.0000
     36 H          -4.8609    1.2891    4.4010 H       1  UNL1        0.0000
     37 H          -4.1567    1.8934    2.9007 H       1  UNL1        0.0000
     38 H          -4.2550    0.1532    3.1906 H       1  UNL1        0.0000
     39 H          -0.6112    1.0184    3.7232 H       1  UNL1        0.0000
     40 H          -1.6821   -0.1286    2.9045 H       1  UNL1        0.0000
     41 H          -1.6986    1.5705    2.4369 H       1  UNL1        0.0000
     42 H          -0.5154    2.0942   10.2892 H       1  UNL1        0.0000
     43 H          -1.8140    2.1435    9.0987 H       1  UNL1        0.0000
     44 H          -1.0336    4.5187   10.8417 H       1  UNL1        0.0000
     45 H          -2.2725    3.3506   11.3026 H       1  UNL1        0.0000
     46 H          -3.6852    3.9826    9.4536 H       1  UNL1        0.0000
     47 H          -3.1861    5.4437   10.2703 H       1  UNL1        0.0000
     48 H          -0.7557    6.4074    5.2235 H       1  UNL1        0.0000
     49 H          -2.0242    6.4230    4.0002 H       1  UNL1        0.0000
     50 H          -2.6286    8.1076    5.5786 H       1  UNL1        0.0000
     51 H          -3.7147    6.7480    5.8686 H       1  UNL1        0.0000
     52 H          -1.3075    7.5849    7.5271 H       1  UNL1        0.0000
     53 H          -2.9873    7.5982    8.0059 H       1  UNL1        0.0000
@<TRIPOS>BOND
     1    41    20    1
     2    37    19    1
     3    40    20    1
     4    38    19    1
     5    26    15    1
     6    20    39    1
     7    20    18    1
     8    19    18    1
     9    19    36    1
    10    49    21    1
    11    18    16    1
    12    18    35    1
    13    15    16    1
    14    15    14    2
    15    16    17    1
    16    21    48    1
    17    21    14    1
    18    21    22    1
    19    14    13    1
    20    50    22    1
    21    34     9    1
    22    32     9    1
    23    28     7    1
    24    51    22    1
    25    22    23    1
    26     9     7    1
    27     9    33    1
    28    17    13    1
    29    17    27    1
    30    13     1    1
    31    25     6    1
    32     7     5    1
    33     7     8    1
    34     6     5    1
    35     6     2    1
    36    29     8    1
    37     5     4    1
    38    23    52    1
    39    23    53    1
    40    23     1    1
    41     8    30    1
    42     8    31    1
    43     1     2    1
    44     1    12    1
    45     2     3    1
    46     4    24    1
    47     4     3    2
    48     3    10    1
    49    43    10    1
    50    46    12    1
    51    10    42    1
    52    10    11    1
    53    12    47    1
    54    12    11    1
    55    11    44    1
    56    11    45    1
