@<TRIPOS>MOLECULE
2,3,4,5,6,14,15,16,17,18
 59 62 0 0 0
SMALL
GASTEIGER

@<TRIPOS>ATOM
      1 SI         14.8459   10.1182    2.8415 Si      1  UNL1        0.0000
      2 C          15.0456    8.4612    1.9818 C.3     1  UNL1        0.0000
      3 C          15.3323    7.3742    2.8491 C.2     1  UNL1        0.0000
      4 C          15.8327    6.3127    2.0776 C.2     1  UNL1        0.0000
      5 C          15.9227    6.7341    0.7253 C.3     1  UNL1        0.0000
      6 C          15.4606    8.0763    0.6683 C.3     1  UNL1        0.0000
      7 C          16.2670    5.8064   -0.4223 C.3     1  UNL1        0.0000
      8 C          17.6009    5.1034   -0.1272 C.3     1  UNL1        0.0000
      9 C          15.1517    4.7542   -0.5421 C.3     1  UNL1        0.0000
     10 C          16.3709    6.5705   -1.7459 C.3     1  UNL1        0.0000
     11 C          15.0161    7.3737    4.3199 C.3     1  UNL1        0.0000
     12 C          13.7640    8.2049    4.6232 C.3     1  UNL1        0.0000
     13 C          13.9908    9.7120    4.4983 C.3     1  UNL1        0.0000
     14 C          16.6968   10.3865    3.0051 C.3     1  UNL1        0.0000
     15 C          17.3357   10.8474    1.8238 C.2     1  UNL1        0.0000
     16 C          18.7175   10.6346    1.9563 C.2     1  UNL1        0.0000
     17 C          18.9627    9.9857    3.1944 C.3     1  UNL1        0.0000
     18 C          17.7071    9.8061    3.8345 C.3     1  UNL1        0.0000
     19 C          20.3493    9.7413    3.7545 C.3     1  UNL1        0.0000
     20 C          21.0026   11.1052    4.0340 C.3     1  UNL1        0.0000
     21 C          21.1890    8.9760    2.7201 C.3     1  UNL1        0.0000
     22 C          20.2914    8.9433    5.0608 C.3     1  UNL1        0.0000
     23 C          16.6156   11.5492    0.7047 C.3     1  UNL1        0.0000
     24 C          15.4307   12.3686    1.2291 C.3     1  UNL1        0.0000
     25 C          14.2490   11.5084    1.6788 C.3     1  UNL1        0.0000
     26 H          16.0417    5.3173    2.4472 H       1  UNL1        0.0000
     27 H          15.2653    8.6372   -0.2394 H       1  UNL1        0.0000
     28 H          18.4017    5.8345   -0.0010 H       1  UNL1        0.0000
     29 H          17.5358    4.5049    0.7797 H       1  UNL1        0.0000
     30 H          17.8657    4.4428   -0.9505 H       1  UNL1        0.0000
     31 H          14.1933    5.2376   -0.7191 H       1  UNL1        0.0000
     32 H          15.3588    4.0805   -1.3704 H       1  UNL1        0.0000
     33 H          15.0749    4.1672    0.3694 H       1  UNL1        0.0000
     34 H          17.1226    7.3548   -1.6812 H       1  UNL1        0.0000
     35 H          16.6580    5.8880   -2.5428 H       1  UNL1        0.0000
     36 H          15.4129    7.0131   -2.0116 H       1  UNL1        0.0000
     37 H          15.8619    7.7661    4.9022 H       1  UNL1        0.0000
     38 H          14.8528    6.3433    4.6486 H       1  UNL1        0.0000
     39 H          13.4210    7.9768    5.6353 H       1  UNL1        0.0000
     40 H          12.9772    7.9027    3.9296 H       1  UNL1        0.0000
     41 H          13.0337   10.2219    4.5856 H       1  UNL1        0.0000
     42 H          14.6040   10.0543    5.3319 H       1  UNL1        0.0000
     43 H          19.4712   10.9785    1.2600 H       1  UNL1        0.0000
     44 H          17.5633    9.4747    4.8574 H       1  UNL1        0.0000
     45 H          20.4004   11.6758    4.7378 H       1  UNL1        0.0000
     46 H          21.9943   10.9664    4.4588 H       1  UNL1        0.0000
     47 H          21.0971   11.6833    3.1184 H       1  UNL1        0.0000
     48 H          20.7224    8.0192    2.4779 H       1  UNL1        0.0000
     49 H          21.2953    9.5492    1.8008 H       1  UNL1        0.0000
     50 H          22.1842    8.7825    3.1155 H       1  UNL1        0.0000
     51 H          19.7671    9.5041    5.8321 H       1  UNL1        0.0000
     52 H          19.7910    7.9889    4.9087 H       1  UNL1        0.0000
     53 H          21.3004    8.7464    5.4161 H       1  UNL1        0.0000
     54 H          16.2555   10.8276   -0.0423 H       1  UNL1        0.0000
     55 H          17.3162   12.2156    0.1933 H       1  UNL1        0.0000
     56 H          15.0972   13.0545    0.4466 H       1  UNL1        0.0000
     57 H          15.7773   12.9692    2.0720 H       1  UNL1        0.0000
     58 H          13.5142   12.1450    2.1673 H       1  UNL1        0.0000
     59 H          13.7597   11.0822    0.8030 H       1  UNL1        0.0000
@<TRIPOS>BOND
     1    35    10    1
     2    36    10    1
     3    10    34    1
     4    10     7    1
     5    32     9    1
     6    30     8    1
     7    31     9    1
     8     9     7    1
     9     9    33    1
    10     7     8    1
    11     7     5    1
    12    27     6    1
    13     8    28    1
    14     8    29    1
    15    54    23    1
    16    55    23    1
    17    56    24    1
    18     6     5    1
    19     6     2    1
    20    23    24    1
    21    23    15    1
    22     5     4    1
    23    59    25    1
    24    24    25    1
    25    24    57    1
    26    43    16    1
    27    25    58    1
    28    25     1    1
    29    49    21    1
    30    15    16    2
    31    15    14    1
    32    16    17    1
    33     2     1    1
    34     2     3    1
    35     4    26    1
    36     4     3    2
    37    48    21    1
    38    21    50    1
    39    21    19    1
    40     1    14    1
    41     1    13    1
    42     3    11    1
    43    14    18    1
    44    47    20    1
    45    17    19    1
    46    17    18    1
    47    19    20    1
    48    19    22    1
    49    18    44    1
    50    40    12    1
    51    20    46    1
    52    20    45    1
    53    11    12    1
    54    11    38    1
    55    11    37    1
    56    13    41    1
    57    13    12    1
    58    13    42    1
    59    12    39    1
    60    52    22    1
    61    22    53    1
    62    22    51    1
