@<TRIPOS>MOLECULE
4,5,6,7,8,17,18,19,21,24
 27 28 0 0 0
SMALL
GASTEIGER

@<TRIPOS>ATOM
      1 SI          0.7400    2.4522    0.0912 Si      1  UNL1        0.0000
      2 C           1.7497    2.4522   -1.5244 C.3     1  UNL1        0.0000
      3 C          -1.1333    2.4522   -0.2601 C.3     1  UNL1        0.0000
      4 C           2.6045    4.1430    1.5878 C.3     1  UNL1        0.0000
      5 C           2.6178    4.9782    2.7254 C.2     1  UNL1        0.0000
      6 C           1.2918    5.1433    3.1566 C.2     1  UNL1        0.0000
      7 C           0.4598    4.3694    2.3291 C.3     1  UNL1        0.0000
      8 C           1.2563    3.7950    1.3067 C.3     1  UNL1        0.0000
      9 H           3.4584    3.9338    0.9522 H       1  UNL1        0.0000
     10 H           3.4858    5.4887    3.1226 H       1  UNL1        0.0000
     11 H           0.9598    5.8167    3.9340 H       1  UNL1        0.0000
     12 H          -0.6235    4.3634    2.3493 H       1  UNL1        0.0000
     13 H           1.5217    3.3293   -2.1206 H       1  UNL1        0.0000
     14 H           2.8171    2.4522   -1.3298 H       1  UNL1        0.0000
     15 H          -1.4151    3.3277   -0.8346 H       1  UNL1        0.0000
     16 H          -1.7199    2.4522    0.6529 H       1  UNL1        0.0000
     17 C           2.6047    0.7619    1.5882 C.3     1  UNL1        0.0000
     18 C           2.6181   -0.0733    2.7257 C.2     1  UNL1        0.0000
     19 C           1.2920   -0.2387    3.1568 C.2     1  UNL1        0.0000
     20 H           3.4859   -0.5841    3.1228 H       1  UNL1        0.0000
     21 C           0.4600    0.5351    2.3292 C.3     1  UNL1        0.0000
     22 H           1.5217    1.5750   -2.1206 H       1  UNL1        0.0000
     23 H          -1.4151    1.5768   -0.8346 H       1  UNL1        0.0000
     24 C           1.2564    1.1097    1.3069 C.3     1  UNL1        0.0000
     25 H           3.4585    0.9708    0.9524 H       1  UNL1        0.0000
     26 H          -0.6234    0.5410    2.3492 H       1  UNL1        0.0000
     27 H           0.9599   -0.9123    3.9340 H       1  UNL1        0.0000
@<TRIPOS>BOND
     1    13     2    1
     2    22     2    1
     3     2    14    1
     4     2     1    1
     5    23     3    1
     6    15     3    1
     7     3     1    1
     8     3    16    1
     9     1     8    1
    10     1    24    1
    11     9     4    1
    12    25    17    1
    13     8     4    1
    14     8     7    1
    15    24    17    1
    16    24    21    1
    17     4     5    1
    18    17    18    1
    19     7    12    1
    20     7     6    1
    21    21    26    1
    22    21    19    1
    23     5    10    1
    24     5     6    2
    25    18    20    1
    26    18    19    2
    27     6    11    1
    28    19    27    1
