@<TRIPOS>MOLECULE
4,5,6,7,8,9,10,11,12,13
 27 28 0 0 0
SMALL
GASTEIGER

@<TRIPOS>ATOM
      1 SI          1.4736    2.7080   12.5437 Si      1  UNL1        0.0000
      2 C           1.2610    3.2451   14.3560 C.3     1  UNL1        0.0000
      3 C           3.3047    2.5212   12.0630 C.3     1  UNL1        0.0000
      4 C           0.4403    1.1847   12.0981 C.2     1  UNL1        0.0000
      5 C           0.6198    0.4081   10.9317 C.2     1  UNL1        0.0000
      6 C          -0.5476   -0.3638   10.7126 C.2     1  UNL1        0.0000
      7 C          -1.4710   -0.0435   11.7279 C.2     1  UNL1        0.0000
      8 C          -0.8858    0.9472   12.5434 C.3     1  UNL1        0.0000
      9 C           0.5117    3.8030   11.3340 C.2     1  UNL1        0.0000
     10 C          -0.7864    4.3287   11.5634 C.3     1  UNL1        0.0000
     11 C          -1.3240    4.7690   10.3366 C.2     1  UNL1        0.0000
     12 C          -0.4056    4.4368    9.3211 C.2     1  UNL1        0.0000
     13 C           0.7153    3.8256    9.9354 C.2     1  UNL1        0.0000
     14 H           0.2182    3.3493   14.6359 H       1  UNL1        0.0000
     15 H           1.7480    4.1987   14.5282 H       1  UNL1        0.0000
     16 H           1.7127    2.5182   15.0223 H       1  UNL1        0.0000
     17 H           3.4266    2.2042   11.0323 H       1  UNL1        0.0000
     18 H           3.7926    1.7871   12.6956 H       1  UNL1        0.0000
     19 H           3.8293    3.4631   12.1846 H       1  UNL1        0.0000
     20 H           1.5475    0.2900   10.3852 H       1  UNL1        0.0000
     21 H          -0.6580   -1.1503    9.9763 H       1  UNL1        0.0000
     22 H          -2.4283   -0.5233   11.8874 H       1  UNL1        0.0000
     23 H          -1.3138    1.3336   13.4581 H       1  UNL1        0.0000
     24 H          -1.2182    4.5177   12.5366 H       1  UNL1        0.0000
     25 H          -2.2480    5.3163   10.2005 H       1  UNL1        0.0000
     26 H          -0.4828    4.7134    8.2770 H       1  UNL1        0.0000
     27 H           1.6382    3.5774    9.4253 H       1  UNL1        0.0000
@<TRIPOS>BOND
     1    26    12    1
     2    12    13    1
     3    12    11    2
     4    27    13    1
     5    13     9    2
     6    21     6    1
     7    25    11    1
     8    11    10    1
     9    20     5    1
    10     6     5    1
    11     6     7    2
    12     5     4    2
    13    17     3    1
    14     9    10    1
    15     9     1    1
    16    10    24    1
    17     7    22    1
    18     7     8    1
    19     3    19    1
    20     3     1    1
    21     3    18    1
    22     4     8    1
    23     4     1    1
    24     8    23    1
    25     1     2    1
    26     2    15    1
    27     2    14    1
    28     2    16    1
