@<TRIPOS>MOLECULE
3,4,5,6,7,29,30,40,41,42
 55 58 0 0 0
SMALL
GASTEIGER

@<TRIPOS>ATOM
      1 N          -2.9730    1.6758    2.1593 N.3     1  UNL1        0.0000
      2 SI         -0.1043    0.1828    2.9269 Si      1  UNL1        0.0000
      3 C          -0.5499    1.4781    1.6185 C.3     1  UNL1        0.0000
      4 C          -1.7893    2.1927    1.5783 C.3     1  UNL1        0.0000
      5 C          -1.6418    3.3924    0.8537 C.2     1  UNL1        0.0000
      6 C          -0.2913    3.4639    0.4038 C.2     1  UNL1        0.0000
      7 C           0.4006    2.2877    0.8980 C.3     1  UNL1        0.0000
      8 C           1.7714    2.1362    0.6133 C.2     1  UNL1        0.0000
      9 C           2.4038    3.0838   -0.1578 C.2     1  UNL1        0.0000
     10 C           1.7171    4.1953   -0.6720 C.2     1  UNL1        0.0000
     11 C           0.3857    4.3966   -0.4011 C.2     1  UNL1        0.0000
     12 C          -3.5462    0.5870    1.3797 C.3     1  UNL1        0.0000
     13 C          -3.9774    2.6724    2.4903 C.3     1  UNL1        0.0000
     14 C           1.2800   -0.9858    2.3227 C.3     1  UNL1        0.0000
     15 H          -2.4249    4.0920    0.5925 H       1  UNL1        0.0000
     16 H           2.3090    1.2671    0.9633 H       1  UNL1        0.0000
     17 H           3.4537    2.9722   -0.3848 H       1  UNL1        0.0000
     18 H           2.2533    4.9031   -1.2856 H       1  UNL1        0.0000
     19 H          -0.1414    5.2553   -0.7957 H       1  UNL1        0.0000
     20 H          -2.7634   -0.1161    1.1081 H       1  UNL1        0.0000
     21 H          -4.2975    0.0741    1.9801 H       1  UNL1        0.0000
     22 H          -4.0265    0.9526    0.4613 H       1  UNL1        0.0000
     23 H          -3.5123    3.4902    3.0433 H       1  UNL1        0.0000
     24 H          -4.4839    3.0765    1.6031 H       1  UNL1        0.0000
     25 H          -4.7293    2.2007    3.1239 H       1  UNL1        0.0000
     26 H           1.3929   -1.8198    3.0069 H       1  UNL1        0.0000
     27 H           1.0207   -1.3953    1.3515 H       1  UNL1        0.0000
     28 H           2.2415   -0.4990    2.2333 H       1  UNL1        0.0000
     29 C           0.3414    1.4781    4.2354 C.3     1  UNL1        0.0000
     30 C           1.5808    2.1926    4.2756 C.3     1  UNL1        0.0000
     31 N           2.7645    1.6758    3.6945 N.3     1  UNL1        0.0000
     32 C           3.3377    0.5870    4.4741 C.3     1  UNL1        0.0000
     33 H           2.5549   -0.1161    4.7456 H       1  UNL1        0.0000
     34 H           4.0890    0.0741    3.8736 H       1  UNL1        0.0000
     35 H           3.8180    0.9525    5.3924 H       1  UNL1        0.0000
     36 C           3.7690    2.6723    3.3635 C.3     1  UNL1        0.0000
     37 H           3.3040    3.4901    2.8104 H       1  UNL1        0.0000
     38 H           4.2754    3.0764    4.2507 H       1  UNL1        0.0000
     39 H           4.5209    2.2006    2.7299 H       1  UNL1        0.0000
     40 C          -0.6090    2.2876    4.9559 C.3     1  UNL1        0.0000
     41 C           1.4333    3.3922    5.0004 C.2     1  UNL1        0.0000
     42 C           0.0829    3.4637    5.4502 C.2     1  UNL1        0.0000
     43 C          -1.9799    2.1361    5.2406 C.2     1  UNL1        0.0000
     44 C          -2.6122    3.0837    6.0117 C.2     1  UNL1        0.0000
     45 C          -1.9256    4.1952    6.5259 C.2     1  UNL1        0.0000
     46 C          -0.5941    4.3964    6.2552 C.2     1  UNL1        0.0000
     47 H          -0.0671    5.2553    6.6496 H       1  UNL1        0.0000
     48 H          -2.4617    4.9031    7.1395 H       1  UNL1        0.0000
     49 H          -3.6622    2.9721    6.2387 H       1  UNL1        0.0000
     50 H          -2.5176    1.2670    4.8905 H       1  UNL1        0.0000
     51 H           2.2164    4.0918    5.2615 H       1  UNL1        0.0000
     52 C          -1.4886   -0.9858    3.5311 C.3     1  UNL1        0.0000
     53 H          -1.6015   -1.8197    2.8469 H       1  UNL1        0.0000
     54 H          -1.2293   -1.3952    4.5023 H       1  UNL1        0.0000
     55 H          -2.4500   -0.4990    3.6205 H       1  UNL1        0.0000
@<TRIPOS>BOND
     1    18    10    1
     2    19    11    1
     3    10    11    2
     4    10     9    1
     5    11     6    1
     6    17     9    1
     7     9     8    2
     8     6     5    2
     9     6     7    1
    10    22    12    1
    11    15     5    1
    12     8     7    1
    13     8    16    1
    14     5     4    1
    15     7     3    1
    16    20    12    1
    17    27    14    1
    18    12    21    1
    19    12     1    1
    20     4     3    1
    21     4     1    1
    22    24    13    1
    23     3     2    1
    24     1    13    1
    25    28    14    1
    26    14     2    1
    27    14    26    1
    28    13    23    1
    29    13    25    1
    30    39    36    1
    31    37    36    1
    32    53    52    1
    33     2    52    1
    34     2    29    1
    35    36    31    1
    36    36    38    1
    37    52    55    1
    38    52    54    1
    39    31    30    1
    40    31    32    1
    41    34    32    1
    42    29    30    1
    43    29    40    1
    44    30    41    1
    45    32    33    1
    46    32    35    1
    47    50    43    1
    48    40    43    1
    49    40    42    1
    50    41    51    1
    51    41    42    2
    52    43    44    2
    53    42    46    1
    54    44    49    1
    55    44    45    1
    56    46    45    2
    57    46    47    1
    58    45    48    1
