@<TRIPOS>MOLECULE
7,8,9,10,11,12,13,14,15,16
 36 37 0 0 0
SMALL
GASTEIGER

@<TRIPOS>ATOM
      1 SI         -3.1006    2.1884   12.8156 Si      1  UNL1        0.0000
      2 SI         -0.8225    2.1041   12.0521 Si      1  UNL1        0.0000
      3 C          -3.6376    0.6543   13.8175 C.3     1  UNL1        0.0000
      4 C          -4.3077    2.4080   11.3412 C.3     1  UNL1        0.0000
      5 C           0.1163    0.5242   12.5699 C.3     1  UNL1        0.0000
      6 C          -0.7348    2.2612   10.1425 C.3     1  UNL1        0.0000
      7 C          -3.2841    3.7103   13.9192 C.3     1  UNL1        0.0000
      8 C          -3.4392    3.7262   15.3365 C.2     1  UNL1        0.0000
      9 C          -3.3082    5.0493   15.7922 C.2     1  UNL1        0.0000
     10 C          -3.0535    5.8776   14.6744 C.2     1  UNL1        0.0000
     11 C          -3.0602    5.0620   13.5231 C.2     1  UNL1        0.0000
     12 C           0.0755    3.5981   12.7792 C.3     1  UNL1        0.0000
     13 C          -0.2755    4.9635   12.5656 C.2     1  UNL1        0.0000
     14 C           0.4618    5.7676   13.4604 C.2     1  UNL1        0.0000
     15 C           1.3029    4.9160   14.2139 C.2     1  UNL1        0.0000
     16 C           1.0625    3.5916   13.8082 C.2     1  UNL1        0.0000
     17 H          -2.9810    0.5027   14.6686 H       1  UNL1        0.0000
     18 H          -3.5983   -0.2406   13.2054 H       1  UNL1        0.0000
     19 H          -4.6543    0.7532   14.1873 H       1  UNL1        0.0000
     20 H          -4.0836    3.2969   10.7607 H       1  UNL1        0.0000
     21 H          -5.3369    2.4873   11.6766 H       1  UNL1        0.0000
     22 H          -4.2456    1.5582   10.6708 H       1  UNL1        0.0000
     23 H           0.0966    0.4010   13.6483 H       1  UNL1        0.0000
     24 H           1.1545    0.5533   12.2514 H       1  UNL1        0.0000
     25 H          -0.3364   -0.3569   12.1275 H       1  UNL1        0.0000
     26 H          -1.2339    1.4225    9.6702 H       1  UNL1        0.0000
     27 H           0.2918    2.2732    9.7901 H       1  UNL1        0.0000
     28 H          -1.2137    3.1671    9.7859 H       1  UNL1        0.0000
     29 H          -3.7104    2.8716   15.9466 H       1  UNL1        0.0000
     30 H          -3.4499    5.3900   16.8107 H       1  UNL1        0.0000
     31 H          -3.0004    6.9603   14.6922 H       1  UNL1        0.0000
     32 H          -3.0829    5.4219   12.5016 H       1  UNL1        0.0000
     33 H          -0.8629    5.3301   11.7325 H       1  UNL1        0.0000
     34 H           0.4849    6.8514   13.4776 H       1  UNL1        0.0000
     35 H           2.0530    5.2388   14.9255 H       1  UNL1        0.0000
     36 H           1.6058    2.7174   14.1497 H       1  UNL1        0.0000
@<TRIPOS>BOND
     1    26     6    1
     2    28     6    1
     3    27     6    1
     4     6     2    1
     5    22     4    1
     6    20     4    1
     7     4    21    1
     8     4     1    1
     9    33    13    1
    10     2     5    1
    11     2    12    1
    12     2     1    1
    13    25     5    1
    14    24     5    1
    15    32    11    1
    16    13    12    1
    17    13    14    2
    18     5    23    1
    19    12    16    1
    20     1     3    1
    21     1     7    1
    22    18     3    1
    23    14    34    1
    24    14    15    1
    25    11     7    1
    26    11    10    2
    27    16    36    1
    28    16    15    2
    29     3    19    1
    30     3    17    1
    31     7     8    1
    32    15    35    1
    33    10    31    1
    34    10     9    1
    35     8     9    2
    36     8    29    1
    37     9    30    1
