@<TRIPOS>MOLECULE
2,3,4,5,6,21,22,23,26
 39 42 0 0 0
SMALL
GASTEIGER

@<TRIPOS>ATOM
      1 SI         -1.1690   12.3061    2.5587 Si      1  UNL1        0.0000
      2 C           0.4804    9.1240    0.4800 C.ar    1  UNL1        0.0000
      3 C          -0.8382    9.1556   -0.0502 C.2     1  UNL1        0.0000
      4 C          -1.4678   10.3092    0.4501 C.2     1  UNL1        0.0000
      5 C          -0.5911   11.0201    1.3096 C.3     1  UNL1        0.0000
      6 C           0.6181   10.2578    1.3695 C.ar    1  UNL1        0.0000
      7 C           1.8442   10.4692    2.0272 C.ar    1  UNL1        0.0000
      8 C           2.9003    9.6300    1.7650 C.ar    1  UNL1        0.0000
      9 C           2.7803    8.5674    0.8552 C.ar    1  UNL1        0.0000
     10 C           1.5919    8.3049    0.2198 C.ar    1  UNL1        0.0000
     11 C           0.1900   13.4435    3.2738 C.3     1  UNL1        0.0000
     12 H          -1.2155    8.5103   -0.8335 H       1  UNL1        0.0000
     13 H          -2.4298   10.6869    0.1160 H       1  UNL1        0.0000
     14 H           1.9718   11.3182    2.6865 H       1  UNL1        0.0000
     15 H           3.8517    9.7959    2.2507 H       1  UNL1        0.0000
     16 H           3.6466    7.9533    0.6531 H       1  UNL1        0.0000
     17 H           1.5130    7.4939   -0.4931 H       1  UNL1        0.0000
     18 H           0.8263   12.9363    3.9907 H       1  UNL1        0.0000
     19 H          -0.2616   14.2887    3.7824 H       1  UNL1        0.0000
     20 H           0.8223   13.8350    2.4840 H       1  UNL1        0.0000
     21 C          -2.8174    9.1241    4.6383 C.ar    1  UNL1        0.0000
     22 C          -1.4985    9.1558    5.1680 C.2     1  UNL1        0.0000
     23 C          -0.8692   10.3094    4.6673 C.2     1  UNL1        0.0000
     24 H          -1.1209    8.5106    5.9513 H       1  UNL1        0.0000
     25 C          -1.7464   11.0201    3.8081 C.3     1  UNL1        0.0000
     26 C          -2.9556   10.2577    3.7488 C.ar    1  UNL1        0.0000
     27 C          -3.9286    8.3048    4.8990 C.ar    1  UNL1        0.0000
     28 C          -5.1174    8.5671    4.2640 C.ar    1  UNL1        0.0000
     29 C          -5.2378    9.6296    3.3542 C.ar    1  UNL1        0.0000
     30 C          -4.1819   10.4689    3.0915 C.ar    1  UNL1        0.0000
     31 H          -4.3099   11.3178    2.4321 H       1  UNL1        0.0000
     32 H          -6.1894    9.7954    2.8689 H       1  UNL1        0.0000
     33 H          -5.9835    7.9529    4.4665 H       1  UNL1        0.0000
     34 H          -3.8494    7.4938    5.6119 H       1  UNL1        0.0000
     35 C          -2.5285   13.4427    1.8433 C.3     1  UNL1        0.0000
     36 H          -3.1647   12.9350    1.1266 H       1  UNL1        0.0000
     37 H          -2.0773   14.2879    1.3343 H       1  UNL1        0.0000
     38 H          -3.1610   13.8342    2.6329 H       1  UNL1        0.0000
     39 H           0.0929   10.6872    5.0010 H       1  UNL1        0.0000
@<TRIPOS>BOND
     1    12     3    1
     2    17    10    1
     3     3     4    2
     4     3     2    1
     5    13     4    1
     6    10     2   ar
     7    10     9   ar
     8     4     5    1
     9     2     6   ar
    10    16     9    1
    11     9     8   ar
    12    36    35    1
    13     5     6    1
    14     5     1    1
    15    37    35    1
    16     6     7   ar
    17     8     7   ar
    18     8    15    1
    19    35     1    1
    20    35    38    1
    21     7    14    1
    22    31    30    1
    23    20    11    1
    24     1    11    1
    25     1    25    1
    26    32    29    1
    27    30    29   ar
    28    30    26   ar
    29    11    19    1
    30    11    18    1
    31    29    28   ar
    32    26    25    1
    33    26    21   ar
    34    25    23    1
    35    28    33    1
    36    28    27   ar
    37    21    27   ar
    38    21    22    1
    39    23    39    1
    40    23    22    2
    41    27    34    1
    42    22    24    1
