@<TRIPOS>MOLECULE
2,3,4,5,6,7,8,9,10,11
 57 58 0 0 0
SMALL
GASTEIGER

@<TRIPOS>ATOM
      1 SI          7.7152    5.6032    6.0342 Si      1  UNL1        0.0000
      2 C           6.1560    6.1221    5.1164 C.3     1  UNL1        0.0000
      3 C           5.2830    7.1847    5.4528 C.2     1  UNL1        0.0000
      4 C           4.4568    7.4404    4.3465 C.2     1  UNL1        0.0000
      5 C           4.8018    6.5577    3.2937 C.3     1  UNL1        0.0000
      6 C           5.8863    5.7743    3.7548 C.3     1  UNL1        0.0000
      7 C           8.8111    6.8423    5.1359 C.3     1  UNL1        0.0000
      8 C           9.4274    6.6680    3.8729 C.2     1  UNL1        0.0000
      9 C           9.8400    7.9282    3.4095 C.2     1  UNL1        0.0000
     10 C           9.4816    8.9148    4.3619 C.3     1  UNL1        0.0000
     11 C           8.8022    8.2460    5.4069 C.3     1  UNL1        0.0000
     12 C           7.7381    5.8743    7.9269 C.3     1  UNL1        0.0000
     13 C           8.1093    3.7499    5.7750 C.3     1  UNL1        0.0000
     14 C           5.1130    7.7655    6.8298 C.3     1  UNL1        0.0000
     15 C           3.9699    6.3537    2.0402 C.3     1  UNL1        0.0000
     16 C           2.4898    6.2105    2.4314 C.3     1  UNL1        0.0000
     17 C           4.3786    5.0744    1.3021 C.3     1  UNL1        0.0000
     18 C           4.1376    7.5582    1.1032 C.3     1  UNL1        0.0000
     19 C           9.7870    5.3432    3.2576 C.3     1  UNL1        0.0000
     20 C           9.9863   10.3465    4.3418 C.3     1  UNL1        0.0000
     21 C           9.7365   11.0455    5.6824 C.3     1  UNL1        0.0000
     22 C          11.5040   10.3451    4.0953 C.3     1  UNL1        0.0000
     23 C           9.2860   11.1286    3.2215 C.3     1  UNL1        0.0000
     24 H           3.6095    8.1118    4.3532 H       1  UNL1        0.0000
     25 H           6.2895    4.8928    3.2673 H       1  UNL1        0.0000
     26 H          10.4551    8.0919    2.5352 H       1  UNL1        0.0000
     27 H           8.5286    8.6725    6.3660 H       1  UNL1        0.0000
     28 H           7.6854    6.9211    8.2024 H       1  UNL1        0.0000
     29 H           8.6533    5.4708    8.3474 H       1  UNL1        0.0000
     30 H           6.9078    5.3631    8.4017 H       1  UNL1        0.0000
     31 H           7.9767    3.4313    4.7477 H       1  UNL1        0.0000
     32 H           7.4554    3.1431    6.3928 H       1  UNL1        0.0000
     33 H           9.1306    3.5264    6.0636 H       1  UNL1        0.0000
     34 H           4.9716    6.9649    7.5562 H       1  UNL1        0.0000
     35 H           4.2343    8.4077    6.8657 H       1  UNL1        0.0000
     36 H           5.9783    8.3510    7.1469 H       1  UNL1        0.0000
     37 H           2.1199    7.1151    2.9051 H       1  UNL1        0.0000
     38 H           2.3616    5.3842    3.1268 H       1  UNL1        0.0000
     39 H           1.8840    6.0182    1.5477 H       1  UNL1        0.0000
     40 H           5.3967    5.1442    0.9300 H       1  UNL1        0.0000
     41 H           3.7196    4.9115    0.4509 H       1  UNL1        0.0000
     42 H           4.3001    4.2116    1.9600 H       1  UNL1        0.0000
     43 H           5.2002    7.7891    0.9966 H       1  UNL1        0.0000
     44 H           3.6328    8.4293    1.5147 H       1  UNL1        0.0000
     45 H           3.7058    7.3466    0.1257 H       1  UNL1        0.0000
     46 H          10.2972    4.7190    3.9915 H       1  UNL1        0.0000
     47 H          10.4612    5.4863    2.4144 H       1  UNL1        0.0000
     48 H           8.9119    4.7926    2.9060 H       1  UNL1        0.0000
     49 H          10.1977   10.4894    6.4957 H       1  UNL1        0.0000
     50 H           8.6733   11.1456    5.8806 H       1  UNL1        0.0000
     51 H          10.1715   12.0435    5.6661 H       1  UNL1        0.0000
     52 H          12.0104    9.7646    4.8630 H       1  UNL1        0.0000
     53 H          11.8900   11.3627    4.1182 H       1  UNL1        0.0000
     54 H          11.7442    9.9135    3.1280 H       1  UNL1        0.0000
     55 H           8.2089   10.9526    3.2753 H       1  UNL1        0.0000
     56 H           9.6439   10.7971    2.2494 H       1  UNL1        0.0000
     57 H           9.4908   12.1946    3.3124 H       1  UNL1        0.0000
@<TRIPOS>BOND
     1    45    18    1
     2    41    17    1
     3    40    17    1
     4    43    18    1
     5    18    44    1
     6    18    15    1
     7    17    42    1
     8    17    15    1
     9    39    16    1
    10    15    16    1
    11    15     5    1
    12    56    23    1
    13    47    19    1
    14    16    37    1
    15    16    38    1
    16    26     9    1
    17    48    19    1
    18    54    22    1
    19    23    55    1
    20    23    57    1
    21    23    20    1
    22    19     8    1
    23    19    46    1
    24    25     6    1
    25     5     6    1
    26     5     4    1
    27     9     8    2
    28     9    10    1
    29     6     2    1
    30     8     7    1
    31    22    53    1
    32    22    20    1
    33    22    52    1
    34    20    10    1
    35    20    21    1
    36     4    24    1
    37     4     3    2
    38    10    11    1
    39    31    13    1
    40     2     3    1
    41     2     1    1
    42     7    11    1
    43     7     1    1
    44    11    27    1
    45     3    14    1
    46    51    21    1
    47    21    50    1
    48    21    49    1
    49    13     1    1
    50    13    33    1
    51    13    32    1
    52     1    12    1
    53    14    35    1
    54    14    36    1
    55    14    34    1
    56    12    28    1
    57    12    29    1
    58    12    30    1
