@<TRIPOS>MOLECULE
4,5,7,8,9,40,41,43,44,45
 83 88 0 0 0
SMALL
GASTEIGER

@<TRIPOS>ATOM
      1 S          11.1271    1.2798    6.3460 S.3     1  UNL1        0.0000
      2 S           8.4476    1.1961    0.1571 S.3     1  UNL1        0.0000
      3 SI         11.3502    1.9197    2.5657 Si      1  UNL1        0.0000
      4 C           8.7934    3.0785    3.6187 C.3     1  UNL1        0.0000
      5 C           7.9954    2.9364    4.7782 C.2     1  UNL1        0.0000
      6 H           7.0167    3.3778    4.9223 H       1  UNL1        0.0000
      7 C           8.7762    2.2637    5.7567 C.2     1  UNL1        0.0000
      8 C          10.0510    2.0070    5.1764 C.3     1  UNL1        0.0000
      9 C          10.0999    2.5326    3.8522 C.3     1  UNL1        0.0000
     10 C           8.3194    3.7945    2.3853 C.3     1  UNL1        0.0000
     11 H           8.1539    4.8506    2.6063 H       1  UNL1        0.0000
     12 H           7.3678    3.3743    2.0464 H       1  UNL1        0.0000
     13 H           9.0452    3.7261    1.5802 H       1  UNL1        0.0000
     14 C           9.8705    1.3188    7.5511 C.2     1  UNL1        0.0000
     15 H          10.0897    0.8965    8.5120 H       1  UNL1        0.0000
     16 C           8.6904    1.8436    7.1270 C.2     1  UNL1        0.0000
     17 C           7.4624    1.9234    7.9142 C.ar    1  UNL1        0.0000
     18 C           6.2324    1.6912    7.3040 C.ar    1  UNL1        0.0000
     19 H           6.1914    1.4157    6.2540 H       1  UNL1        0.0000
     20 C           5.0599    1.7688    8.0330 C.ar    1  UNL1        0.0000
     21 H           4.1327    1.5750    7.5192 H       1  UNL1        0.0000
     22 C           5.0677    2.0843    9.3871 C.ar    1  UNL1        0.0000
     23 C           6.3054    2.3009    9.9896 C.ar    1  UNL1        0.0000
     24 H           6.3605    2.5415   11.0408 H       1  UNL1        0.0000
     25 C           7.4816    2.2201    9.2737 C.ar    1  UNL1        0.0000
     26 H           8.4259    2.4063    9.7645 H       1  UNL1        0.0000
     27 C           3.8008    2.2006   10.2196 C.3     1  UNL1        0.0000
     28 C           3.7109    3.6225   10.7923 C.3     1  UNL1        0.0000
     29 H           2.8011    3.7332   11.3787 H       1  UNL1        0.0000
     30 H           3.6923    4.3520    9.9851 H       1  UNL1        0.0000
     31 H           4.5584    3.8468   11.4341 H       1  UNL1        0.0000
     32 C           3.8573    1.1813   11.3662 C.3     1  UNL1        0.0000
     33 H           2.9487    1.2368   11.9622 H       1  UNL1        0.0000
     34 H           4.7046    1.3664   12.0204 H       1  UNL1        0.0000
     35 H           3.9484    0.1731   10.9677 H       1  UNL1        0.0000
     36 C           2.5324    1.9329    9.4052 C.3     1  UNL1        0.0000
     37 H           1.6607    2.0332   10.0489 H       1  UNL1        0.0000
     38 H           2.5344    0.9249    8.9972 H       1  UNL1        0.0000
     39 H           2.4323    2.6472    8.5913 H       1  UNL1        0.0000
     40 C          10.2714   -0.8247    3.1084 C.3     1  UNL1        0.0000
     41 C           9.0898   -1.5461    2.8175 C.2     1  UNL1        0.0000
     42 H           8.8397   -2.5231    3.2130 H       1  UNL1        0.0000
     43 C           8.3934   -0.8374    1.8016 C.2     1  UNL1        0.0000
     44 C           9.1687    0.3137    1.4824 C.3     1  UNL1        0.0000
     45 C          10.3623    0.3305    2.2616 C.3     1  UNL1        0.0000
     46 C          11.2944   -1.3015    4.1007 C.3     1  UNL1        0.0000
     47 H          11.7457   -2.2331    3.7539 H       1  UNL1        0.0000
     48 H          10.8201   -1.5029    5.0658 H       1  UNL1        0.0000
     49 H          12.0867   -0.5716    4.2393 H       1  UNL1        0.0000
     50 C           7.1467    0.0413    0.0742 C.2     1  UNL1        0.0000
     51 H           6.3678    0.2197   -0.6408 H       1  UNL1        0.0000
     52 C           7.2205   -0.9663    0.9836 C.2     1  UNL1        0.0000
     53 C           6.2233   -2.0169    1.1728 C.ar    1  UNL1        0.0000
     54 C           5.9133   -2.4539    2.4582 C.ar    1  UNL1        0.0000
     55 H           6.3861   -1.9879    3.3180 H       1  UNL1        0.0000
     56 C           4.9761   -3.4514    2.6547 C.ar    1  UNL1        0.0000
     57 H           4.7648   -3.7527    3.6676 H       1  UNL1        0.0000
     58 C           4.3211   -4.0518    1.5853 C.ar    1  UNL1        0.0000
     59 C           4.6300   -3.5969    0.3049 C.ar    1  UNL1        0.0000
     60 H           4.1411   -4.0292   -0.5554 H       1  UNL1        0.0000
     61 C           5.5583   -2.5981    0.0974 C.ar    1  UNL1        0.0000
     62 H           5.7869   -2.2743   -0.9077 H       1  UNL1        0.0000
     63 C           3.3007   -5.1659    1.7565 C.3     1  UNL1        0.0000
     64 C           3.7952   -6.4134    1.0100 C.3     1  UNL1        0.0000
     65 H           3.9095   -6.2205   -0.0530 H       1  UNL1        0.0000
     66 H           3.0864   -7.2296    1.1337 H       1  UNL1        0.0000
     67 H           4.7587   -6.7299    1.4043 H       1  UNL1        0.0000
     68 C           1.9562   -4.7096    1.1726 C.3     1  UNL1        0.0000
     69 H           1.6130   -3.8101    1.6793 H       1  UNL1        0.0000
     70 H           1.2072   -5.4878    1.3039 H       1  UNL1        0.0000
     71 H           2.0379   -4.4922    0.1113 H       1  UNL1        0.0000
     72 C           3.0802   -5.5445    3.2234 C.3     1  UNL1        0.0000
     73 H           2.7026   -4.6988    3.7931 H       1  UNL1        0.0000
     74 H           4.0019   -5.8987    3.6789 H       1  UNL1        0.0000
     75 H           2.3460   -6.3455    3.2847 H       1  UNL1        0.0000
     76 C          11.5228    2.9428    0.9677 C.3     1  UNL1        0.0000
     77 H          12.4368    2.6586    0.4574 H       1  UNL1        0.0000
     78 H          11.5875    4.0040    1.1831 H       1  UNL1        0.0000
     79 H          10.7029    2.7835    0.2756 H       1  UNL1        0.0000
     80 C          13.0870    1.7280    3.3251 C.3     1  UNL1        0.0000
     81 H          13.6474    0.9382    2.8361 H       1  UNL1        0.0000
     82 H          13.0604    1.5200    4.3893 H       1  UNL1        0.0000
     83 H          13.6410    2.6507    3.1898 H       1  UNL1        0.0000
@<TRIPOS>BOND
     1    62    61    1
     2    51    50    1
     3    60    59    1
     4    65    64    1
     5    50     2    1
     6    50    52    2
     7    61    59   ar
     8    61    53   ar
     9    71    68    1
    10     2    44    1
    11    79    76    1
    12    59    58   ar
    13    77    76    1
    14    76    78    1
    15    76     3    1
    16    52    53    1
    17    52    43    1
    18    64    66    1
    19    64    67    1
    20    64    63    1
    21    68    70    1
    22    68    69    1
    23    68    63    1
    24    53    54   ar
    25    44    43    1
    26    44    45    1
    27    13    10    1
    28    58    63    1
    29    58    56   ar
    30    63    72    1
    31    43    41    2
    32    12    10    1
    33    45     3    1
    34    45    40    1
    35    10    11    1
    36    10     4    1
    37    54    56   ar
    38    54    55    1
    39     3    80    1
    40     3     9    1
    41    56    57    1
    42    41    40    1
    43    41    42    1
    44    81    80    1
    45    40    46    1
    46    83    80    1
    47    72    75    1
    48    72    74    1
    49    72    73    1
    50    80    82    1
    51     4     9    1
    52     4     5    1
    53    47    46    1
    54     9     8    1
    55    46    49    1
    56    46    48    1
    57     5     6    1
    58     5     7    2
    59     8     7    1
    60     8     1    1
    61     7    16    1
    62    19    18    1
    63     1    14    1
    64    16    14    2
    65    16    17    1
    66    18    17   ar
    67    18    20   ar
    68    21    20    1
    69    14    15    1
    70    17    25   ar
    71    20    22   ar
    72    39    36    1
    73    38    36    1
    74    25    26    1
    75    25    23   ar
    76    22    23   ar
    77    22    27    1
    78    36    37    1
    79    36    27    1
    80    30    28    1
    81    23    24    1
    82    27    28    1
    83    27    32    1
    84    28    29    1
    85    28    31    1
    86    35    32    1
    87    32    33    1
    88    32    34    1
