@<TRIPOS>MOLECULE
3,4,6,7,8,10,12,13,14,15
 73 75 0 0 0
SMALL
GASTEIGER

@<TRIPOS>ATOM
      1 SI          1.9878    6.4799    3.4512 Si      1  UNL1        0.0000
      2 SI          1.6771    8.3622    6.3226 Si      1  UNL1        0.0000
      3 C           2.5852   10.4942    2.9531 C.2     1  UNL1        0.0000
      4 C           2.6631    9.1656    2.4683 C.2     1  UNL1        0.0000
      5 H           2.8451    8.8962    1.4343 H       1  UNL1        0.0000
      6 C           2.6187    8.2627    3.5614 C.2     1  UNL1        0.0000
      7 C           2.4853    9.0486    4.7540 C.2     1  UNL1        0.0000
      8 C           2.4510   10.4127    4.3621 C.3     1  UNL1        0.0000
      9 H           2.4292   11.2509    5.0479 H       1  UNL1        0.0000
     10 C          -1.8471    7.7503    4.2766 C.2     1  UNL1        0.0000
     11 H          -2.8922    7.9109    4.0604 H       1  UNL1        0.0000
     12 C          -0.9670    6.9621    3.5075 C.3     1  UNL1        0.0000
     13 C           0.2899    6.9220    4.1712 C.3     1  UNL1        0.0000
     14 C           0.1593    7.7072    5.3903 C.3     1  UNL1        0.0000
     15 C          -1.1754    8.1983    5.4318 C.2     1  UNL1        0.0000
     16 C           2.8175   11.7328    2.1218 C.3     1  UNL1        0.0000
     17 H           2.6768   11.4508    1.0691 H       1  UNL1        0.0000
     18 C           1.7779   12.8201    2.4528 C.3     1  UNL1        0.0000
     19 H           1.5282   12.7930    3.5162 H       1  UNL1        0.0000
     20 H           2.1779   13.8097    2.2316 H       1  UNL1        0.0000
     21 C           0.5024   12.6255    1.6390 C.3     1  UNL1        0.0000
     22 H           0.6995   12.7697    0.5778 H       1  UNL1        0.0000
     23 H          -0.2574   13.3403    1.9477 H       1  UNL1        0.0000
     24 H           0.1019   11.6186    1.7821 H       1  UNL1        0.0000
     25 C           4.2966   12.2188    2.2340 C.3     1  UNL1        0.0000
     26 C           4.5709   13.2847    1.1670 C.3     1  UNL1        0.0000
     27 H           4.0070   14.1952    1.3493 H       1  UNL1        0.0000
     28 H           4.3130   12.9139    0.1774 H       1  UNL1        0.0000
     29 H           5.6273   13.5447    1.1673 H       1  UNL1        0.0000
     30 C           5.2361   11.0370    1.9679 C.3     1  UNL1        0.0000
     31 H           6.2705   11.3738    1.9805 H       1  UNL1        0.0000
     32 H           5.0337   10.5973    0.9939 H       1  UNL1        0.0000
     33 H           5.1200   10.2671    2.7257 H       1  UNL1        0.0000
     34 C           4.6092   12.7915    3.6166 C.3     1  UNL1        0.0000
     35 H           4.5276   12.0196    4.3766 H       1  UNL1        0.0000
     36 H           3.9363   13.6066    3.8682 H       1  UNL1        0.0000
     37 H           5.6274   13.1749    3.6343 H       1  UNL1        0.0000
     38 C          -1.3519    6.1253    2.3125 C.3     1  UNL1        0.0000
     39 H          -0.5946    6.2382    1.5299 H       1  UNL1        0.0000
     40 C          -2.6984    6.5403    1.7195 C.3     1  UNL1        0.0000
     41 H          -3.5075    6.3513    2.4215 H       1  UNL1        0.0000
     42 H          -2.8954    5.9696    0.8145 H       1  UNL1        0.0000
     43 H          -2.6898    7.5975    1.4610 H       1  UNL1        0.0000
     44 C          -1.3908    4.6511    2.7355 C.3     1  UNL1        0.0000
     45 H          -2.1416    4.5058    3.5092 H       1  UNL1        0.0000
     46 H          -0.4258    4.3427    3.1310 H       1  UNL1        0.0000
     47 H          -1.6414    4.0188    1.8865 H       1  UNL1        0.0000
     48 C          -1.8190    8.8884    6.6091 C.3     1  UNL1        0.0000
     49 H          -1.1938    9.7293    6.9250 H       1  UNL1        0.0000
     50 C          -1.9134    7.8939    7.7734 C.3     1  UNL1        0.0000
     51 H          -2.5325    7.0456    7.4893 H       1  UNL1        0.0000
     52 H          -2.3574    8.3703    8.6446 H       1  UNL1        0.0000
     53 H          -0.9258    7.5248    8.0406 H       1  UNL1        0.0000
     54 C          -3.2038    9.4424    6.2744 C.3     1  UNL1        0.0000
     55 H          -3.1455   10.1186    5.4238 H       1  UNL1        0.0000
     56 H          -3.5949    9.9969    7.1247 H       1  UNL1        0.0000
     57 H          -3.9002    8.6387    6.0455 H       1  UNL1        0.0000
     58 C           2.0209    6.0240    1.5951 C.3     1  UNL1        0.0000
     59 H           1.5099    6.7655    0.9862 H       1  UNL1        0.0000
     60 H           1.5633    5.0585    1.4114 H       1  UNL1        0.0000
     61 H           3.0485    5.9626    1.2499 H       1  UNL1        0.0000
     62 C           2.9251    5.1204    4.4113 C.3     1  UNL1        0.0000
     63 H           3.9723    5.3745    4.5283 H       1  UNL1        0.0000
     64 H           2.8772    4.1835    3.8675 H       1  UNL1        0.0000
     65 H           2.5073    4.9519    5.3957 H       1  UNL1        0.0000
     66 C           1.3579    9.8684    7.4562 C.3     1  UNL1        0.0000
     67 H           0.8016    9.5919    8.3447 H       1  UNL1        0.0000
     68 H           0.8117   10.6546    6.9409 H       1  UNL1        0.0000
     69 H           2.3044   10.2846    7.7880 H       1  UNL1        0.0000
     70 C           2.6762    7.0689    7.3131 C.3     1  UNL1        0.0000
     71 H           3.0430    7.5095    8.2332 H       1  UNL1        0.0000
     72 H           3.5328    6.7113    6.7561 H       1  UNL1        0.0000
     73 H           2.0681    6.2121    7.5805 H       1  UNL1        0.0000
@<TRIPOS>BOND
     1    28    26    1
     2    22    21    1
     3    42    40    1
     4    59    58    1
     5    32    30    1
     6    17    16    1
     7    26    29    1
     8    26    27    1
     9    26    25    1
    10    61    58    1
    11    60    58    1
    12     5     4    1
    13    43    40    1
    14    39    38    1
    15    58     1    1
    16    21    24    1
    17    21    23    1
    18    21    18    1
    19    40    38    1
    20    40    41    1
    21    47    44    1
    22    30    31    1
    23    30    25    1
    24    30    33    1
    25    16    25    1
    26    16    18    1
    27    16     3    1
    28    20    18    1
    29    25    34    1
    30    38    44    1
    31    38    12    1
    32    18    19    1
    33     4     3    2
    34     4     6    1
    35    44    46    1
    36    44    45    1
    37     3     8    1
    38     1     6    1
    39     1    13    1
    40     1    62    1
    41    12    13    1
    42    12    10    1
    43     6     7    2
    44    34    37    1
    45    34    36    1
    46    34    35    1
    47    64    62    1
    48    11    10    1
    49    13    14    1
    50    10    15    2
    51     8     7    1
    52     8     9    1
    53    62    63    1
    54    62    65    1
    55     7     2    1
    56    14    15    1
    57    14     2    1
    58    55    54    1
    59    15    48    1
    60    57    54    1
    61    54    48    1
    62    54    56    1
    63     2    70    1
    64     2    66    1
    65    48    49    1
    66    48    50    1
    67    72    70    1
    68    68    66    1
    69    70    73    1
    70    70    71    1
    71    66    69    1
    72    66    67    1
    73    51    50    1
    74    50    53    1
    75    50    52    1
