@<TRIPOS>MOLECULE
3,4,6,8,10,21,22,24,26,28
 37 38 0 0 0
SMALL
GASTEIGER

@<TRIPOS>ATOM
      1 S           1.8089    3.5838    0.9377 S.3     1  UNL1        0.0000
      2 SI          1.2414    1.8318    2.0838 Si      1  UNL1        0.0000
      3 C          -0.6075    1.8012    2.3550 C.3     1  UNL1        0.0000
      4 C          -1.3066    1.4011    3.5203 C.3     1  UNL1        0.0000
      5 H          -0.8431    0.8655    4.3425 H       1  UNL1        0.0000
      6 C          -2.7212    1.4425    3.2602 C.2     1  UNL1        0.0000
      7 H          -3.4939    1.0029    3.8763 H       1  UNL1        0.0000
      8 C          -2.8922    1.9287    1.9596 C.2     1  UNL1        0.0000
      9 H          -3.8302    2.0095    1.4325 H       1  UNL1        0.0000
     10 C          -1.6050    2.1720    1.4055 C.3     1  UNL1        0.0000
     11 H          -1.4049    2.3522    0.3571 H       1  UNL1        0.0000
     12 C           2.1671    1.7663    3.7433 C.3     1  UNL1        0.0000
     13 H           1.7145    2.4194    4.4814 H       1  UNL1        0.0000
     14 H           3.2015    2.0689    3.6194 H       1  UNL1        0.0000
     15 H           2.1629    0.7583    4.1453 H       1  UNL1        0.0000
     16 C           1.7633    0.3807    0.9647 C.3     1  UNL1        0.0000
     17 H           1.5390   -0.5755    1.4270 H       1  UNL1        0.0000
     18 H           2.8298    0.4208    0.7701 H       1  UNL1        0.0000
     19 H           1.2546    0.4190    0.0069 H       1  UNL1        0.0000
     20 SI          1.2414    5.3358    2.0838 Si      1  UNL1        0.0000
     21 C          -0.6075    5.3664    2.3550 C.3     1  UNL1        0.0000
     22 C          -1.3066    5.7665    3.5203 C.3     1  UNL1        0.0000
     23 H          -0.8431    6.3021    4.3425 H       1  UNL1        0.0000
     24 C          -2.7212    5.7252    3.2602 C.2     1  UNL1        0.0000
     25 H          -3.4939    6.1647    3.8763 H       1  UNL1        0.0000
     26 C          -2.8922    5.2389    1.9596 C.2     1  UNL1        0.0000
     27 H          -3.8302    5.1581    1.4325 H       1  UNL1        0.0000
     28 C          -1.6050    4.9956    1.4055 C.3     1  UNL1        0.0000
     29 H          -1.4049    4.8154    0.3571 H       1  UNL1        0.0000
     30 C           2.1671    5.4013    3.7433 C.3     1  UNL1        0.0000
     31 H           1.7145    4.7481    4.4814 H       1  UNL1        0.0000
     32 H           3.2015    5.0987    3.6194 H       1  UNL1        0.0000
     33 H           2.1629    6.4093    4.1453 H       1  UNL1        0.0000
     34 C           1.7633    6.7869    0.9646 C.3     1  UNL1        0.0000
     35 H           1.5390    7.7431    1.4270 H       1  UNL1        0.0000
     36 H           2.8298    6.7468    0.7701 H       1  UNL1        0.0000
     37 H           1.2546    6.7486    0.0069 H       1  UNL1        0.0000
@<TRIPOS>BOND
     1    37    34    1
     2    19    16    1
     3    29    28    1
     4    11    10    1
     5    36    34    1
     6    18    16    1
     7     1    20    1
     8     1     2    1
     9    34    35    1
    10    34    20    1
    11    16    17    1
    12    16     2    1
    13    10     8    1
    14    10     3    1
    15    28    26    1
    16    28    21    1
    17    27    26    1
    18     9     8    1
    19    26    24    2
    20     8     6    2
    21    20    21    1
    22    20    30    1
    23     2     3    1
    24     2    12    1
    25    21    22    1
    26     3     4    1
    27     6     4    1
    28     6     7    1
    29    24    22    1
    30    24    25    1
    31    22    23    1
    32     4     5    1
    33    14    12    1
    34    32    30    1
    35    12    15    1
    36    12    13    1
    37    30    33    1
    38    30    31    1
