@<TRIPOS>MOLECULE
3,4,5,6,7,24,25,26,27,28
 70 71 0 0 0
SMALL
GASTEIGER

@<TRIPOS>ATOM
      1 SI          5.0924    4.4402    6.0718 Si      1  UNL1        0.0000
      2 SI          7.1486    6.4304    1.1549 Si      1  UNL1        0.0000
      3 C           5.6512    3.2508    4.7094 C.3     1  UNL1        0.0000
      4 C           5.0357    1.9826    4.4750 C.2     1  UNL1        0.0000
      5 C           5.9604    1.1502    3.7920 C.2     1  UNL1        0.0000
      6 C           7.1610    1.8809    3.6095 C.3     1  UNL1        0.0000
      7 C           6.9628    3.1824    4.1450 C.3     1  UNL1        0.0000
      8 C           3.7173    1.5417    5.0309 C.3     1  UNL1        0.0000
      9 H           3.4169    0.5865    4.6055 H       1  UNL1        0.0000
     10 H           2.9417    2.2753    4.8130 H       1  UNL1        0.0000
     11 H           3.7930    1.4289    6.1140 H       1  UNL1        0.0000
     12 C           5.7977   -0.3140    3.5163 C.3     1  UNL1        0.0000
     13 H           6.4938   -0.6480    2.7493 H       1  UNL1        0.0000
     14 H           4.7865   -0.5415    3.1837 H       1  UNL1        0.0000
     15 H           5.9939   -0.8837    4.4276 H       1  UNL1        0.0000
     16 C           8.4726    1.2129    3.3141 C.3     1  UNL1        0.0000
     17 H           8.7070    0.5409    4.1438 H       1  UNL1        0.0000
     18 H           9.2870    1.9255    3.2271 H       1  UNL1        0.0000
     19 H           8.4360    0.6055    2.4107 H       1  UNL1        0.0000
     20 C           8.0278    4.2002    4.4160 C.3     1  UNL1        0.0000
     21 H           8.2362    4.2282    5.4871 H       1  UNL1        0.0000
     22 H           7.6986    5.1914    4.1117 H       1  UNL1        0.0000
     23 H           8.9581    3.9575    3.9078 H       1  UNL1        0.0000
     24 C           6.3675    4.7091    1.1079 C.2     1  UNL1        0.0000
     25 C           7.0700    3.4648    0.9469 C.3     1  UNL1        0.0000
     26 C           6.1952    2.5265    0.3407 C.2     1  UNL1        0.0000
     27 C           4.9841    3.2046    0.0184 C.2     1  UNL1        0.0000
     28 C           5.0814    4.5225    0.4976 C.2     1  UNL1        0.0000
     29 C           8.5640    3.3380    0.9296 C.3     1  UNL1        0.0000
     30 H           8.8828    2.3007    0.8885 H       1  UNL1        0.0000
     31 H           9.0332    3.8267    1.7757 H       1  UNL1        0.0000
     32 H           8.9307    3.8253    0.0226 H       1  UNL1        0.0000
     33 C           6.5146    1.1289   -0.1046 C.3     1  UNL1        0.0000
     34 H           5.7120    0.4465    0.1817 H       1  UNL1        0.0000
     35 H           7.4459    0.7711    0.3301 H       1  UNL1        0.0000
     36 H           6.6155    1.0967   -1.1918 H       1  UNL1        0.0000
     37 C           3.8832    2.6957   -0.8599 C.3     1  UNL1        0.0000
     38 H           2.9051    2.9595   -0.4578 H       1  UNL1        0.0000
     39 H           3.9295    1.6150   -0.9669 H       1  UNL1        0.0000
     40 H           3.9764    3.1503   -1.8497 H       1  UNL1        0.0000
     41 C           4.0580    5.5729    0.2012 C.3     1  UNL1        0.0000
     42 H           4.1524    5.8846   -0.8416 H       1  UNL1        0.0000
     43 H           4.1822    6.4415    0.8402 H       1  UNL1        0.0000
     44 H           3.0496    5.1833    0.3436 H       1  UNL1        0.0000
     45 C           5.6957    6.2634    5.8853 C.3     1  UNL1        0.0000
     46 C           5.5109    6.7862    4.5052 C.2     1  UNL1        0.0000
     47 C           6.4739    7.3012    3.7557 C.2     1  UNL1        0.0000
     48 C           6.2998    7.6990    2.3316 C.3     1  UNL1        0.0000
     49 C           3.2154    4.5377    6.4217 C.3     1  UNL1        0.0000
     50 H           3.0136    5.3668    7.0943 H       1  UNL1        0.0000
     51 H           2.8393    3.6383    6.8974 H       1  UNL1        0.0000
     52 H           2.6427    4.7046    5.5160 H       1  UNL1        0.0000
     53 C           5.9179    3.7441    7.6605 C.3     1  UNL1        0.0000
     54 H           7.0004    3.7242    7.5886 H       1  UNL1        0.0000
     55 H           5.5896    2.7300    7.8639 H       1  UNL1        0.0000
     56 H           5.6590    4.3514    8.5211 H       1  UNL1        0.0000
     57 C           9.0122    6.5258    1.5928 C.3     1  UNL1        0.0000
     58 H           9.2958    7.5730    1.6469 H       1  UNL1        0.0000
     59 H           9.6352    6.0666    0.8332 H       1  UNL1        0.0000
     60 H           9.2627    6.0793    2.5480 H       1  UNL1        0.0000
     61 C           7.0381    7.1227   -0.6329 C.3     1  UNL1        0.0000
     62 H           7.7592    7.9204   -0.7819 H       1  UNL1        0.0000
     63 H           6.0564    7.5280   -0.8526 H       1  UNL1        0.0000
     64 H           7.2455    6.3518   -1.3691 H       1  UNL1        0.0000
     65 H           5.0964    6.8572    6.5782 H       1  UNL1        0.0000
     66 H           6.7359    6.3765    6.1908 H       1  UNL1        0.0000
     67 H           4.5114    6.7006    4.1030 H       1  UNL1        0.0000
     68 H           7.4730    7.4273    4.1572 H       1  UNL1        0.0000
     69 H           6.7574    8.6739    2.1570 H       1  UNL1        0.0000
     70 H           5.2377    7.7943    2.1129 H       1  UNL1        0.0000
@<TRIPOS>BOND
     1    40    37    1
     2    64    61    1
     3    36    33    1
     4    39    37    1
     5    37    38    1
     6    37    27    1
     7    63    61    1
     8    42    41    1
     9    62    61    1
    10    61     2    1
    11    33    34    1
    12    33    35    1
    13    33    26    1
    14    27    26    2
    15    27    28    1
    16    32    29    1
    17    41    44    1
    18    41    28    1
    19    41    43    1
    20    26    25    1
    21    28    24    2
    22    59    57    1
    23    30    29    1
    24    29    25    1
    25    29    31    1
    26    25    24    1
    27    24     2    1
    28     2    57    1
    29     2    48    1
    30    57    58    1
    31    57    60    1
    32    70    48    1
    33    69    48    1
    34    48    47    1
    35    19    16    1
    36    13    12    1
    37    14    12    1
    38    18    16    1
    39    16     6    1
    40    16    17    1
    41    12     5    1
    42    12    15    1
    43     6     5    1
    44     6     7    1
    45    47    68    1
    46    47    46    2
    47     5     4    2
    48    23    20    1
    49    67    46    1
    50    22    20    1
    51     7    20    1
    52     7     3    1
    53    20    21    1
    54     4     3    1
    55     4     8    1
    56    46    45    1
    57     9     8    1
    58     3     1    1
    59    10     8    1
    60     8    11    1
    61    52    49    1
    62    45     1    1
    63    45    66    1
    64    45    65    1
    65     1    49    1
    66     1    53    1
    67    49    51    1
    68    49    50    1
    69    54    53    1
    70    53    55    1
    71    53    56    1
