@<TRIPOS>MOLECULE
2,3,4,14,15,24,25,26,27,28
 48 50 0 0 0
SMALL
GASTEIGER

@<TRIPOS>ATOM
      1 SI          5.0650    1.7592    1.5200 Si      1  UNL1        0.0000
      2 C           6.5682    0.6606    1.8668 C.3     1  UNL1        0.0000
      3 C           6.5531   -0.7411    2.1949 C.2     1  UNL1        0.0000
      4 C           7.8367   -1.1465    2.5692 C.2     1  UNL1        0.0000
      5 H           8.1239   -2.1530    2.8402 H       1  UNL1        0.0000
      6 C          10.0975    0.0744    2.6494 C.ar    1  UNL1        0.0000
      7 H          10.6705   -0.7811    2.9789 H       1  UNL1        0.0000
      8 C          10.7021    1.2884    2.4186 C.ar    1  UNL1        0.0000
      9 H          11.7654    1.3996    2.5705 H       1  UNL1        0.0000
     10 C           9.9588    2.3850    1.9685 C.ar    1  UNL1        0.0000
     11 H          10.4679    3.3168    1.7673 H       1  UNL1        0.0000
     12 C           8.5993    2.2975    1.7622 C.ar    1  UNL1        0.0000
     13 H           8.0620    3.1470    1.3689 H       1  UNL1        0.0000
     14 C           7.9407    1.0897    2.0238 C.ar    1  UNL1        0.0000
     15 C           8.7197   -0.0421    2.4461 C.ar    1  UNL1        0.0000
     16 C           5.3180    3.3034    0.4204 C.3     1  UNL1        0.0000
     17 H           6.2596    3.8182    0.5609 H       1  UNL1        0.0000
     18 H           4.5199    4.0190    0.5929 H       1  UNL1        0.0000
     19 H           5.2697    3.0087   -0.6229 H       1  UNL1        0.0000
     20 C           3.5876    0.9154    0.6447 C.3     1  UNL1        0.0000
     21 H           3.8087    0.8261   -0.4142 H       1  UNL1        0.0000
     22 H           2.7009    1.5351    0.7352 H       1  UNL1        0.0000
     23 H           3.3426   -0.0750    1.0051 H       1  UNL1        0.0000
     24 C           4.8959    2.0800    3.3931 C.3     1  UNL1        0.0000
     25 C           5.8560    2.8476    4.1326 C.3     1  UNL1        0.0000
     26 C           5.8097    2.4484    5.4922 C.2     1  UNL1        0.0000
     27 C           4.8664    1.3984    5.6075 C.2     1  UNL1        0.0000
     28 C           4.3135    1.1606    4.3195 C.3     1  UNL1        0.0000
     29 C           6.6090    4.0636    3.6833 C.3     1  UNL1        0.0000
     30 H           7.6876    3.9068    3.7571 H       1  UNL1        0.0000
     31 H           6.3507    4.9061    4.3278 H       1  UNL1        0.0000
     32 H           6.3526    4.3292    2.6634 H       1  UNL1        0.0000
     33 C           6.5011    3.1321    6.6298 C.3     1  UNL1        0.0000
     34 H           5.8601    3.9240    7.0255 H       1  UNL1        0.0000
     35 H           7.4411    3.5743    6.3057 H       1  UNL1        0.0000
     36 H           6.7121    2.4293    7.4341 H       1  UNL1        0.0000
     37 C           4.4158    0.7731    6.8901 C.3     1  UNL1        0.0000
     38 H           3.6882    1.4224    7.3828 H       1  UNL1        0.0000
     39 H           5.2591    0.6311    7.5659 H       1  UNL1        0.0000
     40 H           3.9541   -0.1953    6.7105 H       1  UNL1        0.0000
     41 C           3.1306    0.2642    4.1055 C.3     1  UNL1        0.0000
     42 H           2.7832    0.3059    3.0782 H       1  UNL1        0.0000
     43 H           2.3122    0.5897    4.7511 H       1  UNL1        0.0000
     44 H           3.3687   -0.7673    4.3741 H       1  UNL1        0.0000
     45 C           5.4151   -1.6970    1.9913 C.3     1  UNL1        0.0000
     46 H           5.2249   -1.8200    0.9233 H       1  UNL1        0.0000
     47 H           4.5004   -1.3540    2.4703 H       1  UNL1        0.0000
     48 H           5.6738   -2.6687    2.4097 H       1  UNL1        0.0000
@<TRIPOS>BOND
     1    19    16    1
     2    21    20    1
     3    16    17    1
     4    16    18    1
     5    16     1    1
     6    20    22    1
     7    20    23    1
     8    20     1    1
     9    46    45    1
    10    13    12    1
    11     1     2    1
    12     1    24    1
    13    12    10   ar
    14    12    14   ar
    15    11    10    1
    16     2    14    1
    17     2     3    1
    18    10     8   ar
    19    45     3    1
    20    45    48    1
    21    45    47    1
    22    14    15   ar
    23     3     4    2
    24     8     9    1
    25     8     6   ar
    26    15     4    1
    27    15     6   ar
    28     4     5    1
    29     6     7    1
    30    32    29    1
    31    42    41    1
    32    24    25    1
    33    24    28    1
    34    29    30    1
    35    29    25    1
    36    29    31    1
    37    41    28    1
    38    41    44    1
    39    41    43    1
    40    25    26    1
    41    28    27    1
    42    26    27    2
    43    26    33    1
    44    27    37    1
    45    35    33    1
    46    33    34    1
    47    33    36    1
    48    40    37    1
    49    37    38    1
    50    37    39    1
