@<TRIPOS>MOLECULE
3,5,15,16,25,26,27,28,29
 45 47 0 0 0
SMALL
GASTEIGER

@<TRIPOS>ATOM
      1 SI          7.2593    3.4063    4.8398 Si      1  UNL1        0.0000
      2 C           7.8339    2.0118    3.7066 C.3     1  UNL1        0.0000
      3 C           9.0605    1.2979    3.9182 C.2     1  UNL1        0.0000
      4 H           9.6424    1.3208    4.8341 H       1  UNL1        0.0000
      5 C           9.2897    0.4204    2.8573 C.2     1  UNL1        0.0000
      6 H          10.1118   -0.2761    2.7718 H       1  UNL1        0.0000
      7 C           7.9470   -0.0813    0.7161 C.ar    1  UNL1        0.0000
      8 H           8.6349   -0.8169    0.3226 H       1  UNL1        0.0000
      9 C           6.8004    0.2538    0.0363 C.ar    1  UNL1        0.0000
     10 H           6.5772   -0.2190   -0.9087 H       1  UNL1        0.0000
     11 C           5.9025    1.1998    0.5509 C.ar    1  UNL1        0.0000
     12 H           5.0051    1.4251   -0.0070 H       1  UNL1        0.0000
     13 C           6.1404    1.8396    1.7447 C.ar    1  UNL1        0.0000
     14 H           5.4271    2.5509    2.1369 H       1  UNL1        0.0000
     15 C           7.3115    1.5407    2.4549 C.ar    1  UNL1        0.0000
     16 C           8.2165    0.5497    1.9363 C.ar    1  UNL1        0.0000
     17 C           5.4236    3.9187    4.7605 C.3     1  UNL1        0.0000
     18 H           5.2770    4.8746    5.2535 H       1  UNL1        0.0000
     19 H           4.8261    3.1845    5.2910 H       1  UNL1        0.0000
     20 H           5.0253    3.9958    3.7569 H       1  UNL1        0.0000
     21 C           7.5683    3.0263    6.6892 C.3     1  UNL1        0.0000
     22 H           6.6738    2.5881    7.1193 H       1  UNL1        0.0000
     23 H           7.7848    3.9296    7.2504 H       1  UNL1        0.0000
     24 H           8.3776    2.3227    6.8523 H       1  UNL1        0.0000
     25 C           8.5225    4.5475    3.9855 C.3     1  UNL1        0.0000
     26 C           8.3245    5.0756    2.6719 C.3     1  UNL1        0.0000
     27 C           9.5928    5.3758    2.1057 C.2     1  UNL1        0.0000
     28 C          10.5878    5.0138    3.0507 C.2     1  UNL1        0.0000
     29 C           9.9363    4.4636    4.1842 C.3     1  UNL1        0.0000
     30 C           7.0164    5.4334    2.0313 C.3     1  UNL1        0.0000
     31 H           6.2391    5.5353    2.7828 H       1  UNL1        0.0000
     32 H           6.7157    4.6760    1.3025 H       1  UNL1        0.0000
     33 H           7.1089    6.3839    1.5059 H       1  UNL1        0.0000
     34 C           9.8480    6.0869    0.8129 C.3     1  UNL1        0.0000
     35 H          10.0057    7.1521    0.9985 H       1  UNL1        0.0000
     36 H           9.0086    5.9677    0.1311 H       1  UNL1        0.0000
     37 H          10.7396    5.6891    0.3277 H       1  UNL1        0.0000
     38 C          12.0478    5.3201    2.9388 C.3     1  UNL1        0.0000
     39 H          12.3813    5.2508    1.9046 H       1  UNL1        0.0000
     40 H          12.6396    4.6301    3.5365 H       1  UNL1        0.0000
     41 H          12.2351    6.3372    3.2920 H       1  UNL1        0.0000
     42 C          10.6738    4.0638    5.4278 C.3     1  UNL1        0.0000
     43 H           9.9941    3.7177    6.1990 H       1  UNL1        0.0000
     44 H          11.2262    4.9204    5.8193 H       1  UNL1        0.0000
     45 H          11.3989    3.2762    5.2062 H       1  UNL1        0.0000
@<TRIPOS>BOND
     1    10     9    1
     2    12    11    1
     3     9    11   ar
     4     9     7   ar
     5    36    34    1
     6     8     7    1
     7    37    34    1
     8    11    13   ar
     9     7    16   ar
    10    34    35    1
    11    34    27    1
    12    32    30    1
    13    33    30    1
    14    13    14    1
    15    13    15   ar
    16    39    38    1
    17    16    15   ar
    18    16     5    1
    19    30    26    1
    20    30    31    1
    21    27    26    1
    22    27    28    2
    23    15     2    1
    24    26    25    1
    25     6     5    1
    26     5     3    2
    27    38    28    1
    28    38    41    1
    29    38    40    1
    30    28    29    1
    31     2     3    1
    32     2     1    1
    33    20    17    1
    34     3     4    1
    35    25    29    1
    36    25     1    1
    37    29    42    1
    38    17     1    1
    39    17    18    1
    40    17    19    1
    41     1    21    1
    42    45    42    1
    43    42    44    1
    44    42    43    1
    45    21    24    1
    46    21    22    1
    47    21    23    1
