@<TRIPOS>MOLECULE
12,13,14,15,32,33,34,35,36
 52 53 0 0 0
SMALL
GASTEIGER

@<TRIPOS>ATOM
      1 SI          3.6176    3.4118    8.4836 Si      1  UNL1        0.0000
      2 C           3.8064    4.6475    9.9365 C.3     1  UNL1        0.0000
      3 H           3.8790    4.0930   10.8665 H       1  UNL1        0.0000
      4 H           2.9134    5.2614    9.9947 H       1  UNL1        0.0000
      5 H           4.6556    5.3172    9.8861 H       1  UNL1        0.0000
      6 C           1.9342    2.6593    8.9481 C.2     1  UNL1        0.0000
      7 H           1.0508    3.1767    8.5941 H       1  UNL1        0.0000
      8 C           1.7704    1.6405    9.7770 C.2     1  UNL1        0.0000
      9 H           2.6112    1.0969   10.1757 H       1  UNL1        0.0000
     10 H           0.7963    1.2947   10.0890 H       1  UNL1        0.0000
     11 C           5.0277    2.1732    8.1858 C.3     1  UNL1        0.0000
     12 C           4.8896    0.9598    7.4270 C.2     1  UNL1        0.0000
     13 C           6.1711    0.5631    6.9690 C.2     1  UNL1        0.0000
     14 C           7.1119    1.5367    7.3920 C.2     1  UNL1        0.0000
     15 C           6.4152    2.5358    8.1150 C.2     1  UNL1        0.0000
     16 C           3.6724    0.0918    7.2641 C.3     1  UNL1        0.0000
     17 H           3.4805   -0.1088    6.2065 H       1  UNL1        0.0000
     18 H           2.7933    0.5471    7.7091 H       1  UNL1        0.0000
     19 H           3.8369   -0.8700    7.7548 H       1  UNL1        0.0000
     20 C           6.5082   -0.7297    6.2846 C.3     1  UNL1        0.0000
     21 H           7.3178   -0.5886    5.5678 H       1  UNL1        0.0000
     22 H           5.6469   -1.1276    5.7508 H       1  UNL1        0.0000
     23 H           6.8323   -1.4717    7.0186 H       1  UNL1        0.0000
     24 C           8.5994    1.4415    7.2142 C.3     1  UNL1        0.0000
     25 H           9.0270    0.7659    7.9590 H       1  UNL1        0.0000
     26 H           9.0693    2.4171    7.3225 H       1  UNL1        0.0000
     27 H           8.8468    1.0530    6.2253 H       1  UNL1        0.0000
     28 C           7.1146    3.6601    8.8268 C.3     1  UNL1        0.0000
     29 H           7.8533    3.2545    9.5211 H       1  UNL1        0.0000
     30 H           6.4166    4.2608    9.3998 H       1  UNL1        0.0000
     31 H           7.6464    4.3003    8.1178 H       1  UNL1        0.0000
     32 C           3.6637    4.1069    6.7177 C.3     1  UNL1        0.0000
     33 C           3.1319    3.4044    5.5830 C.2     1  UNL1        0.0000
     34 C           3.7414    3.9110    4.4089 C.2     1  UNL1        0.0000
     35 C           4.6885    4.8946    4.7935 C.2     1  UNL1        0.0000
     36 C           4.6631    5.0019    6.2067 C.2     1  UNL1        0.0000
     37 C           1.9776    2.4417    5.5540 C.3     1  UNL1        0.0000
     38 H           1.1226    2.9030    5.0546 H       1  UNL1        0.0000
     39 H           1.6682    2.1595    6.5562 H       1  UNL1        0.0000
     40 H           2.2386    1.5408    4.9932 H       1  UNL1        0.0000
     41 C           3.3626    3.5809    2.9947 C.3     1  UNL1        0.0000
     42 H           2.6604    4.3241    2.6094 H       1  UNL1        0.0000
     43 H           2.8941    2.6005    2.9326 H       1  UNL1        0.0000
     44 H           4.2410    3.5805    2.3486 H       1  UNL1        0.0000
     45 C           5.4737    5.7543    3.8458 C.3     1  UNL1        0.0000
     46 H           5.8614    5.1608    3.0162 H       1  UNL1        0.0000
     47 H           6.3160    6.2244    4.3496 H       1  UNL1        0.0000
     48 H           4.8364    6.5386    3.4303 H       1  UNL1        0.0000
     49 C           5.4520    6.0368    6.9597 C.3     1  UNL1        0.0000
     50 H           6.5234    5.9174    6.7762 H       1  UNL1        0.0000
     51 H           5.2631    5.9806    8.0263 H       1  UNL1        0.0000
     52 H           5.1694    7.0365    6.6228 H       1  UNL1        0.0000
@<TRIPOS>BOND
     1    44    41    1
     2    42    41    1
     3    43    41    1
     4    41    34    1
     5    46    45    1
     6    48    45    1
     7    45    47    1
     8    45    35    1
     9    34    35    1
    10    34    33    2
    11    35    36    2
    12    40    37    1
    13    38    37    1
    14    37    33    1
    15    37    39    1
    16    21    20    1
    17    33    32    1
    18    22    20    1
    19    17    16    1
    20    36    32    1
    21    36    49    1
    22    27    24    1
    23    20    13    1
    24    20    23    1
    25    52    49    1
    26    32     1    1
    27    50    49    1
    28    49    51    1
    29    13    14    1
    30    13    12    2
    31    24    26    1
    32    24    14    1
    33    24    25    1
    34    16    12    1
    35    16    18    1
    36    16    19    1
    37    14    15    2
    38    12    11    1
    39    15    11    1
    40    15    28    1
    41    31    28    1
    42    11     1    1
    43     1     6    1
    44     1     2    1
    45     7     6    1
    46    28    30    1
    47    28    29    1
    48     6     8    2
    49     8    10    1
    50     8     9    1
    51     5     2    1
    52     2     4    1
    53     2     3    1
