@<TRIPOS>MOLECULE
14,15,16,17,18,35,36,38,40,42
 43 44 0 0 0
SMALL
GASTEIGER

@<TRIPOS>ATOM
      1 SI         15.8798    0.3503    3.8362 Si      1  UNL1        0.0000
      2 C          16.9148    0.1873    5.4377 C.3     1  UNL1        0.0000
      3 H          17.3632    1.1336    5.7224 H       1  UNL1        0.0000
      4 H          17.7222   -0.5206    5.2826 H       1  UNL1        0.0000
      5 H          16.3312   -0.1760    6.2771 H       1  UNL1        0.0000
      6 C          17.0277   -0.2545    2.4160 C.3     1  UNL1        0.0000
      7 H          17.3872   -1.2381    2.7258 H       1  UNL1        0.0000
      8 H          16.4976   -0.3929    1.4757 H       1  UNL1        0.0000
      9 C          18.2040    0.6337    2.2134 C.2     1  UNL1        0.0000
     10 H          18.7924    0.8271    3.0999 H       1  UNL1        0.0000
     11 C          18.5552    1.1750    1.0607 C.2     1  UNL1        0.0000
     12 H          18.0049    0.9907    0.1518 H       1  UNL1        0.0000
     13 H          19.4153    1.8155    0.9701 H       1  UNL1        0.0000
     14 C          14.9505    1.9943    3.6357 C.3     1  UNL1        0.0000
     15 C          14.1578    2.5931    4.6719 C.3     1  UNL1        0.0000
     16 C          13.2302    3.4833    4.0749 C.2     1  UNL1        0.0000
     17 C          13.3905    3.4060    2.6629 C.2     1  UNL1        0.0000
     18 C          14.4309    2.4820    2.3920 C.3     1  UNL1        0.0000
     19 C          14.2820    2.4128    6.1608 C.3     1  UNL1        0.0000
     20 H          14.5263    3.3637    6.6382 H       1  UNL1        0.0000
     21 H          15.0630    1.7018    6.4103 H       1  UNL1        0.0000
     22 H          13.3316    2.0640    6.5816 H       1  UNL1        0.0000
     23 C          12.3291    4.4459    4.7926 C.3     1  UNL1        0.0000
     24 H          12.1156    4.1035    5.8036 H       1  UNL1        0.0000
     25 H          11.3822    4.5580    4.2637 H       1  UNL1        0.0000
     26 H          12.8017    5.4292    4.8524 H       1  UNL1        0.0000
     27 C          12.6320    4.2392    1.6696 C.3     1  UNL1        0.0000
     28 H          13.0000    5.2677    1.6742 H       1  UNL1        0.0000
     29 H          11.5693    4.2588    1.9207 H       1  UNL1        0.0000
     30 H          12.7326    3.8361    0.6638 H       1  UNL1        0.0000
     31 C          14.9356    2.1336    1.0194 C.3     1  UNL1        0.0000
     32 H          14.8590    2.9970    0.3594 H       1  UNL1        0.0000
     33 H          14.3468    1.3214    0.5761 H       1  UNL1        0.0000
     34 H          15.9804    1.8394    1.0659 H       1  UNL1        0.0000
     35 C          14.2827   -0.6617    3.8387 C.2     1  UNL1        0.0000
     36 C          13.3551   -0.6991    4.9185 C.3     1  UNL1        0.0000
     37 H          13.6007   -0.5636    5.9658 H       1  UNL1        0.0000
     38 C          12.1145   -1.1589    4.4292 C.2     1  UNL1        0.0000
     39 H          11.2443   -1.3984    5.0283 H       1  UNL1        0.0000
     40 C          12.2387   -1.3566    3.0399 C.2     1  UNL1        0.0000
     41 H          11.4795   -1.7705    2.3870 H       1  UNL1        0.0000
     42 C          13.5598   -1.0270    2.6680 C.2     1  UNL1        0.0000
     43 H          13.9858   -1.1725    1.6811 H       1  UNL1        0.0000
@<TRIPOS>BOND
     1    12    11    1
     2    32    31    1
     3    33    31    1
     4    30    27    1
     5    13    11    1
     6    31    34    1
     7    31    18    1
     8    11     9    2
     9     8     6    1
    10    27    28    1
    11    27    29    1
    12    27    17    1
    13    43    42    1
    14     9     6    1
    15     9    10    1
    16    41    40    1
    17    18    17    1
    18    18    14    1
    19     6     7    1
    20     6     1    1
    21    17    16    2
    22    42    40    1
    23    42    35    2
    24    40    38    2
    25    14     1    1
    26    14    15    1
    27     1    35    1
    28     1     2    1
    29    35    36    1
    30    16    15    1
    31    16    23    1
    32    25    23    1
    33    38    36    1
    34    38    39    1
    35    15    19    1
    36    23    26    1
    37    23    24    1
    38    36    37    1
    39     4     2    1
    40     2     3    1
    41     2     5    1
    42    19    21    1
    43    19    22    1
    44    19    20    1
