@<TRIPOS>MOLECULE
2,3,5,6,8,22,31,32,41,42
 50 55 0 0 0
SMALL
GASTEIGER

@<TRIPOS>ATOM
      1 SI          3.0365    5.5875    2.1691 Si      1  UNL1        0.0000
      2 C           3.8908    2.6215    4.8140 C.2     1  UNL1        0.0000
      3 C           4.2204    3.8511    4.2157 C.3     1  UNL1        0.0000
      4 H           5.1681    4.3739    4.2867 H       1  UNL1        0.0000
      5 C           3.0238    4.3732    3.6238 C.3     1  UNL1        0.0000
      6 C           1.9718    3.4227    3.8356 C.3     1  UNL1        0.0000
      7 H           0.9300    3.5662    3.5704 H       1  UNL1        0.0000
      8 C           2.5115    2.3585    4.5805 C.2     1  UNL1        0.0000
      9 C           2.1570    1.1625    5.4216 C.3     1  UNL1        0.0000
     10 H           1.2578    0.6133    5.1476 H       1  UNL1        0.0000
     11 C           2.1900    1.6693    6.8835 C.3     1  UNL1        0.0000
     12 H           1.5751    2.5598    7.0070 H       1  UNL1        0.0000
     13 H           1.8166    0.8987    7.5571 H       1  UNL1        0.0000
     14 C           3.6862    1.9549    7.1373 C.3     1  UNL1        0.0000
     15 H           4.0754    1.3293    7.9399 H       1  UNL1        0.0000
     16 H           3.8674    2.9970    7.3963 H       1  UNL1        0.0000
     17 C           4.3626    1.5835    5.7956 C.3     1  UNL1        0.0000
     18 H           5.4357    1.4110    5.8565 H       1  UNL1        0.0000
     19 C           3.4892    0.3902    5.3625 C.3     1  UNL1        0.0000
     20 H           3.5256   -0.4335    6.0750 H       1  UNL1        0.0000
     21 H           3.7294    0.0237    4.3590 H       1  UNL1        0.0000
     22 C           2.5898    3.2789    0.3531 C.ar    1  UNL1        0.0000
     23 C           1.1828    3.2358    0.2949 C.ar    1  UNL1        0.0000
     24 H           0.5921    4.0294    0.7311 H       1  UNL1        0.0000
     25 C           0.5684    2.1966   -0.3666 C.ar    1  UNL1        0.0000
     26 H          -0.5101    2.1614   -0.4152 H       1  UNL1        0.0000
     27 C           1.3058    1.1805   -0.9868 C.ar    1  UNL1        0.0000
     28 H           0.7830    0.3888   -1.5007 H       1  UNL1        0.0000
     29 C           2.6825    1.1773   -0.9393 C.ar    1  UNL1        0.0000
     30 H           3.2506    0.3891   -1.4143 H       1  UNL1        0.0000
     31 C           3.3390    2.2069   -0.2598 C.ar    1  UNL1        0.0000
     32 C           4.7339    2.4702   -0.0268 C.ar    1  UNL1        0.0000
     33 C           5.8907    1.7821   -0.4027 C.ar    1  UNL1        0.0000
     34 H           5.8192    0.8724   -0.9831 H       1  UNL1        0.0000
     35 C           7.1169    2.2769   -0.0163 C.ar    1  UNL1        0.0000
     36 H           8.0195    1.7536   -0.2912 H       1  UNL1        0.0000
     37 C           7.2110    3.4511    0.7408 C.ar    1  UNL1        0.0000
     38 H           8.1886    3.8044    1.0347 H       1  UNL1        0.0000
     39 C           6.0936    4.1640    1.1126 C.ar    1  UNL1        0.0000
     40 H           6.1954    5.0890    1.6631 H       1  UNL1        0.0000
     41 C           4.8208    3.7008    0.7245 C.ar    1  UNL1        0.0000
     42 C           3.4987    4.2321    0.9366 C.3     1  UNL1        0.0000
     43 C           1.3386    6.4066    1.8696 C.3     1  UNL1        0.0000
     44 H           1.1857    6.6202    0.8171 H       1  UNL1        0.0000
     45 H           1.2823    7.3481    2.4050 H       1  UNL1        0.0000
     46 H           0.5129    5.7927    2.2120 H       1  UNL1        0.0000
     47 C           4.3320    6.9755    2.3638 C.3     1  UNL1        0.0000
     48 H           3.8807    7.8392    2.8395 H       1  UNL1        0.0000
     49 H           4.7118    7.2953    1.3993 H       1  UNL1        0.0000
     50 H           5.1761    6.6765    2.9754 H       1  UNL1        0.0000
@<TRIPOS>BOND
     1    28    27    1
     2    30    29    1
     3    27    29   ar
     4    27    25   ar
     5    34    33    1
     6    29    31   ar
     7    26    25    1
     8    33    32   ar
     9    33    35   ar
    10    25    23   ar
    11    36    35    1
    12    31    32    1
    13    31    22   ar
    14    32    41   ar
    15    35    37   ar
    16    23    22   ar
    17    23    24    1
    18    22    42    1
    19    41    42    1
    20    41    39   ar
    21    37    38    1
    22    37    39   ar
    23    44    43    1
    24    42     1    1
    25    39    40    1
    26    49    47    1
    27    43     1    1
    28    43    46    1
    29    43    45    1
    30     1    47    1
    31     1     5    1
    32    47    48    1
    33    47    50    1
    34     7     6    1
    35     5     6    1
    36     5     3    1
    37     6     8    1
    38     3     4    1
    39     3     2    1
    40    21    19    1
    41     8     2    2
    42     8     9    1
    43     2    17    1
    44    10     9    1
    45    19     9    1
    46    19    17    1
    47    19    20    1
    48     9    11    1
    49    17    18    1
    50    17    14    1
    51    11    12    1
    52    11    14    1
    53    11    13    1
    54    14    16    1
    55    14    15    1
