@<TRIPOS>MOLECULE
2,3,4,5,6,30,31,32,33,34
 57 58 0 0 0
SMALL
GASTEIGER

@<TRIPOS>ATOM
      1 SI         -0.0000   10.2949   10.1244 Si      1  UNL1        0.0000
      2 C           0.6601    8.9768    8.9415 C.3     1  UNL1        0.0000
      3 C           1.8543    8.2385    9.2240 C.3     1  UNL1        0.0000
      4 C           1.8863    7.0833    8.4036 C.2     1  UNL1        0.0000
      5 C           0.6824    7.0771    7.6569 C.2     1  UNL1        0.0000
      6 C          -0.0828    8.2096    8.0044 C.3     1  UNL1        0.0000
      7 C           1.3946   11.4309   10.7608 C.3     1  UNL1        0.0000
      8 C           3.0521    6.1488    8.1536 C.3     1  UNL1        0.0000
      9 C           4.0727    6.2171    9.2945 C.3     1  UNL1        0.0000
     10 C           2.5423    4.7083    8.0035 C.3     1  UNL1        0.0000
     11 C           3.7345    6.5855    6.8459 C.3     1  UNL1        0.0000
     12 C          -1.4338    8.5260    7.4241 C.3     1  UNL1        0.0000
     13 H           1.5802   12.2191   10.0388 H       1  UNL1        0.0000
     14 H           1.1126   11.9063   11.6943 H       1  UNL1        0.0000
     15 H           2.3310   10.9077   10.9182 H       1  UNL1        0.0000
     16 H           0.4176    6.3722    6.8792 H       1  UNL1        0.0000
     17 H           2.6801    8.6136    9.8171 H       1  UNL1        0.0000
     18 H          -1.6444    9.5910    7.4842 H       1  UNL1        0.0000
     19 H          -1.4686    8.2269    6.3761 H       1  UNL1        0.0000
     20 H          -2.2243    7.9742    7.9481 H       1  UNL1        0.0000
     21 H           3.6039    5.9655   10.2442 H       1  UNL1        0.0000
     22 H           4.5115    7.2104    9.3629 H       1  UNL1        0.0000
     23 H           4.8774    5.5084    9.1118 H       1  UNL1        0.0000
     24 H           1.9249    4.6034    7.1140 H       1  UNL1        0.0000
     25 H           3.3816    4.0220    7.9132 H       1  UNL1        0.0000
     26 H           1.9503    4.4172    8.8722 H       1  UNL1        0.0000
     27 H           3.0356    6.5378    6.0145 H       1  UNL1        0.0000
     28 H           4.5788    5.9355    6.6273 H       1  UNL1        0.0000
     29 H           4.0954    7.6083    6.9298 H       1  UNL1        0.0000
     30 C          -0.6603    8.9771   11.3075 C.3     1  UNL1        0.0000
     31 C          -1.8544    8.2387   11.0248 C.3     1  UNL1        0.0000
     32 C          -1.8865    7.0835   11.8452 C.3     1  UNL1        0.0000
     33 C          -0.6828    7.0775   12.5923 C.2     1  UNL1        0.0000
     34 C           0.0825    8.2100   12.2447 C.2     1  UNL1        0.0000
     35 C          -1.3946   11.4308    9.4877 C.3     1  UNL1        0.0000
     36 H          -2.6800    8.6137   10.4315 H       1  UNL1        0.0000
     37 C          -3.0523    6.1489   12.0948 C.3     1  UNL1        0.0000
     38 H          -0.4180    6.3724   13.3698 H       1  UNL1        0.0000
     39 C           1.4334    8.5260   12.8248 C.3     1  UNL1        0.0000
     40 H          -1.5805   12.2189   10.2097 H       1  UNL1        0.0000
     41 H          -1.1124   11.9064    8.5543 H       1  UNL1        0.0000
     42 H          -2.3308   10.9076    9.3298 H       1  UNL1        0.0000
     43 C          -4.0728    6.2171   10.9538 C.3     1  UNL1        0.0000
     44 C          -2.5425    4.7084   12.2453 C.3     1  UNL1        0.0000
     45 C          -3.7349    6.5856   13.4023 C.3     1  UNL1        0.0000
     46 H           1.6449    9.5904   12.7645 H       1  UNL1        0.0000
     47 H           1.4688    8.2278   13.8725 H       1  UNL1        0.0000
     48 H           2.2238    7.9743   12.3016 H       1  UNL1        0.0000
     49 H          -3.6041    5.9656   10.0041 H       1  UNL1        0.0000
     50 H          -4.5117    7.2104   10.8854 H       1  UNL1        0.0000
     51 H          -4.8775    5.5083   11.1364 H       1  UNL1        0.0000
     52 H          -1.9254    4.6036   13.1350 H       1  UNL1        0.0000
     53 H          -3.3818    4.0220   12.3354 H       1  UNL1        0.0000
     54 H          -1.9501    4.4170   11.3771 H       1  UNL1        0.0000
     55 H          -3.0360    6.5380   14.2338 H       1  UNL1        0.0000
     56 H          -4.5792    5.9357   13.6208 H       1  UNL1        0.0000
     57 H          -4.0957    7.6084   13.3183 H       1  UNL1        0.0000
@<TRIPOS>BOND
     1    27    11    1
     2    19    12    1
     3    28    11    1
     4    11    29    1
     5    11     8    1
     6    16     5    1
     7    24    10    1
     8    12    18    1
     9    12    20    1
    10    12     6    1
    11     5     6    1
    12     5     4    2
    13    25    10    1
    14    10     8    1
    15    10    26    1
    16     6     2    1
    17     8     4    1
    18     8     9    1
    19     4     3    1
    20    41    35    1
    21     2     3    1
    22     2     1    1
    23    23     9    1
    24     3    17    1
    25     9    22    1
    26     9    21    1
    27    42    35    1
    28    35     1    1
    29    35    40    1
    30    49    43    1
    31    13     7    1
    32     1     7    1
    33     1    30    1
    34    36    31    1
    35     7    15    1
    36     7    14    1
    37    50    43    1
    38    43    51    1
    39    43    37    1
    40    31    30    1
    41    31    32    1
    42    30    34    1
    43    54    44    1
    44    32    37    1
    45    32    33    1
    46    37    44    1
    47    37    45    1
    48    34    33    2
    49    34    39    1
    50    44    53    1
    51    44    52    1
    52    48    39    1
    53    33    38    1
    54    46    39    1
    55    39    47    1
    56    57    45    1
    57    45    56    1
    58    45    55    1
