@<TRIPOS>MOLECULE
6,7,8,9,10,17,18,19,20,21
 58 60 0 0 0
SMALL
GASTEIGER

@<TRIPOS>ATOM
      1 SI          1.3110   11.7634    9.9888 Si      1  UNL1        0.0000
      2 SI          5.3000   16.0778    7.1526 Si      1  UNL1        0.0000
      3 C           3.0532   11.8158   10.7619 C.3     1  UNL1        0.0000
      4 C           0.1801   13.0611   10.8183 C.3     1  UNL1        0.0000
      5 C           0.5709   10.0172   10.2570 C.3     1  UNL1        0.0000
      6 C           1.2635   12.0506    8.1201 C.3     1  UNL1        0.0000
      7 C           1.7649   11.1422    7.1349 C.3     1  UNL1        0.0000
      8 C           1.3973   11.6672    5.8928 C.3     1  UNL1        0.0000
      9 C           0.5228   13.0943    7.4609 C.2     1  UNL1        0.0000
     10 C           0.6340   12.8406    6.0942 C.2     1  UNL1        0.0000
     11 C           0.3160   12.9769    4.6075 C.3     1  UNL1        0.0000
     12 C          -1.1658   12.9498    4.2592 C.3     1  UNL1        0.0000
     13 C           1.0203   11.5838    4.4290 C.3     1  UNL1        0.0000
     14 C           1.1092   14.1812    4.0270 C.3     1  UNL1        0.0000
     15 C           0.3281   15.4795    4.2724 C.3     1  UNL1        0.0000
     16 C           1.3546   14.0471    2.5185 C.3     1  UNL1        0.0000
     17 C           3.5250   13.3489    4.6327 C.2     1  UNL1        0.0000
     18 C           2.4350   14.2473    4.7664 C.2     1  UNL1        0.0000
     19 C           4.5872   13.8177    5.4246 C.2     1  UNL1        0.0000
     20 C           2.8266   15.2215    5.7137 C.3     1  UNL1        0.0000
     21 C           4.1714   14.9732    6.1162 C.2     1  UNL1        0.0000
     22 C           6.6980   16.6252    5.9631 C.3     1  UNL1        0.0000
     23 C           6.0817   15.1322    8.6133 C.3     1  UNL1        0.0000
     24 C           4.3373   17.6270    7.7179 C.3     1  UNL1        0.0000
     25 H           3.5266   12.7803   10.6004 H       1  UNL1        0.0000
     26 H           0.1490   12.9020   11.8911 H       1  UNL1        0.0000
     27 H           3.7025   11.0578   10.3332 H       1  UNL1        0.0000
     28 H           3.0023   11.6427   11.8329 H       1  UNL1        0.0000
     29 H          -0.8402   13.0024   10.4509 H       1  UNL1        0.0000
     30 H           0.5457   14.0685   10.6453 H       1  UNL1        0.0000
     31 H           0.4716    9.8109   11.3170 H       1  UNL1        0.0000
     32 H           1.2024    9.2438    9.8318 H       1  UNL1        0.0000
     33 H          -0.4135    9.9219    9.8097 H       1  UNL1        0.0000
     34 H           2.2760   10.2134    7.3546 H       1  UNL1        0.0000
     35 H          -0.0617   13.8506    7.9703 H       1  UNL1        0.0000
     36 H          -1.6831   13.8132    4.6681 H       1  UNL1        0.0000
     37 H          -1.6230   12.0581    4.6842 H       1  UNL1        0.0000
     38 H          -1.3086   12.9281    3.1809 H       1  UNL1        0.0000
     39 H           1.8117   11.5015    3.6884 H       1  UNL1        0.0000
     40 H           0.2984   10.7861    4.2427 H       1  UNL1        0.0000
     41 H          -0.5594   15.5154    3.6462 H       1  UNL1        0.0000
     42 H           0.9478   16.3372    4.0194 H       1  UNL1        0.0000
     43 H           0.0253   15.5595    5.3162 H       1  UNL1        0.0000
     44 H           1.9157   13.1506    2.2732 H       1  UNL1        0.0000
     45 H           1.9216   14.9058    2.1654 H       1  UNL1        0.0000
     46 H           0.4099   14.0163    1.9807 H       1  UNL1        0.0000
     47 H           3.6199   12.5376    3.9251 H       1  UNL1        0.0000
     48 H           5.5837   13.3959    5.4471 H       1  UNL1        0.0000
     49 H           2.2694   16.1036    6.0021 H       1  UNL1        0.0000
     50 H           7.3685   17.3160    6.4625 H       1  UNL1        0.0000
     51 H           6.3066   17.1257    5.0830 H       1  UNL1        0.0000
     52 H           7.2903   15.7811    5.6247 H       1  UNL1        0.0000
     53 H           5.3574   14.9575    9.4033 H       1  UNL1        0.0000
     54 H           6.9134   15.6861    9.0382 H       1  UNL1        0.0000
     55 H           6.4553   14.1618    8.2957 H       1  UNL1        0.0000
     56 H           3.5024   17.3634    8.3587 H       1  UNL1        0.0000
     57 H           3.9510   18.1878    6.8717 H       1  UNL1        0.0000
     58 H           4.9877   18.2908    8.2776 H       1  UNL1        0.0000
@<TRIPOS>BOND
     1    46    16    1
     2    45    16    1
     3    44    16    1
     4    16    14    1
     5    38    12    1
     6    41    15    1
     7    39    13    1
     8    47    17    1
     9    42    15    1
    10    14    15    1
    11    14    11    1
    12    14    18    1
    13    40    13    1
    14    12    11    1
    15    12    36    1
    16    12    37    1
    17    15    43    1
    18    13    11    1
    19    13     8    1
    20    11    10    1
    21    17    18    2
    22    17    19    1
    23    18    20    1
    24    51    22    1
    25    19    48    1
    26    19    21    2
    27    52    22    1
    28    20    49    1
    29    20    21    1
    30     8    10    1
    31     8     7    1
    32    22    50    1
    33    22     2    1
    34    10     9    2
    35    21     2    1
    36    57    24    1
    37     7    34    1
    38     7     6    1
    39     2    24    1
    40     2    23    1
    41     9    35    1
    42     9     6    1
    43    24    58    1
    44    24    56    1
    45     6     1    1
    46    55    23    1
    47    23    54    1
    48    23    53    1
    49    33     5    1
    50    32     5    1
    51     1     5    1
    52     1     3    1
    53     1     4    1
    54     5    31    1
    55    27     3    1
    56    29     4    1
    57    25     3    1
    58    30     4    1
    59     3    28    1
    60     4    26    1
