@<TRIPOS>MOLECULE
1,2,3,4,5,31,32,33,34,35
 60 61 0 0 0
SMALL
GASTEIGER

@<TRIPOS>ATOM
      1 C          -0.5375    4.9205    6.8264 C.3     1  UNL1        0.0000
      2 C           0.2195    3.7778    7.2165 C.3     1  UNL1        0.0000
      3 C           1.5303    3.9880    6.7188 C.2     1  UNL1        0.0000
      4 C           1.5709    5.2175    6.0464 C.2     1  UNL1        0.0000
      5 C           0.3006    5.8263    6.1477 C.3     1  UNL1        0.0000
      6 C          -0.0457    7.2234    5.6681 C.3     1  UNL1        0.0000
      7 C          -1.4290    7.6187    6.2067 C.3     1  UNL1        0.0000
      8 C           0.9478    8.2155    6.2961 C.3     1  UNL1        0.0000
      9 SI         -0.1799    2.6106    8.6330 Si      1  UNL1        0.0000
     10 C          -2.0622    2.4010    8.8982 C.3     1  UNL1        0.0000
     11 C           0.6606    0.9088    8.3873 C.3     1  UNL1        0.0000
     12 C           0.5412    3.3922   10.2281 C.3     1  UNL1        0.0000
     13 H          -1.5522    5.1065    7.1551 H       1  UNL1        0.0000
     14 H           2.3903    3.3695    6.9402 H       1  UNL1        0.0000
     15 H           2.4727    5.6653    5.6488 H       1  UNL1        0.0000
     16 H          -2.2224    6.9932    5.8078 H       1  UNL1        0.0000
     17 H          -1.6518    8.6558    5.9703 H       1  UNL1        0.0000
     18 H          -1.4318    7.5187    7.2909 H       1  UNL1        0.0000
     19 H           1.9793    7.9695    6.0677 H       1  UNL1        0.0000
     20 H           0.8359    8.1928    7.3788 H       1  UNL1        0.0000
     21 H           0.7451    9.2291    5.9561 H       1  UNL1        0.0000
     22 H          -2.5477    1.9207    8.0554 H       1  UNL1        0.0000
     23 H          -2.5460    3.3602    9.0555 H       1  UNL1        0.0000
     24 H          -2.2549    1.7939    9.7773 H       1  UNL1        0.0000
     25 H           0.3864    0.4450    7.4442 H       1  UNL1        0.0000
     26 H           0.3861    0.2240    9.1835 H       1  UNL1        0.0000
     27 H           1.7420    1.0054    8.4014 H       1  UNL1        0.0000
     28 H           0.3739    2.7522   11.0887 H       1  UNL1        0.0000
     29 H           0.0848    4.3543   10.4401 H       1  UNL1        0.0000
     30 H           1.6113    3.5527   10.1400 H       1  UNL1        0.0000
     31 C           0.4983    4.9204    2.9320 C.3     1  UNL1        0.0000
     32 C          -0.2587    3.7777    2.5420 C.3     1  UNL1        0.0000
     33 C          -1.5695    3.9880    3.0400 C.2     1  UNL1        0.0000
     34 C          -1.6099    5.2176    3.7123 C.2     1  UNL1        0.0000
     35 C          -0.3396    5.8263    3.6109 C.3     1  UNL1        0.0000
     36 C           0.0068    7.2234    4.0903 C.3     1  UNL1        0.0000
     37 H           1.5130    5.1064    2.6031 H       1  UNL1        0.0000
     38 SI          0.1404    2.6107    1.1254 Si      1  UNL1        0.0000
     39 H          -2.4295    3.3696    2.8186 H       1  UNL1        0.0000
     40 H          -2.5117    5.6654    4.1100 H       1  UNL1        0.0000
     41 C           1.3902    7.6185    3.5518 C.3     1  UNL1        0.0000
     42 C          -0.9866    8.2156    3.4623 C.3     1  UNL1        0.0000
     43 C           2.0226    2.4015    0.8595 C.3     1  UNL1        0.0000
     44 C          -0.6995    0.9086    1.3715 C.3     1  UNL1        0.0000
     45 C          -0.5816    3.3918   -0.4695 C.3     1  UNL1        0.0000
     46 H           2.1835    6.9930    3.9506 H       1  UNL1        0.0000
     47 H           1.6130    8.6556    3.7882 H       1  UNL1        0.0000
     48 H           1.3929    7.5185    2.4675 H       1  UNL1        0.0000
     49 H          -2.0182    7.9697    3.6908 H       1  UNL1        0.0000
     50 H          -0.8747    8.1928    2.3796 H       1  UNL1        0.0000
     51 H          -0.7838    9.2292    3.8023 H       1  UNL1        0.0000
     52 H           2.5087    1.9221    1.7025 H       1  UNL1        0.0000
     53 H           2.5060    3.3609    0.7013 H       1  UNL1        0.0000
     54 H           2.2152    1.7939   -0.0193 H       1  UNL1        0.0000
     55 H          -0.4245    0.4447    2.3143 H       1  UNL1        0.0000
     56 H          -0.4255    0.2240    0.5750 H       1  UNL1        0.0000
     57 H          -1.7810    1.0049    1.3582 H       1  UNL1        0.0000
     58 H          -0.4143    2.7518   -1.3302 H       1  UNL1        0.0000
     59 H          -0.1256    4.3541   -0.6817 H       1  UNL1        0.0000
     60 H          -1.6517    3.5519   -0.3810 H       1  UNL1        0.0000
@<TRIPOS>BOND
     1    58    45    1
     2    59    45    1
     3    45    60    1
     4    45    38    1
     5    54    43    1
     6    56    44    1
     7    53    43    1
     8    43    38    1
     9    43    52    1
    10    38    44    1
    11    38    32    1
    12    57    44    1
    13    44    55    1
    14    50    42    1
    15    48    41    1
    16    32    31    1
    17    32    33    1
    18    37    31    1
    19    39    33    1
    20    31    35    1
    21    33    34    2
    22    42    49    1
    23    42    51    1
    24    42    36    1
    25    41    47    1
    26    41    46    1
    27    41    36    1
    28    35    34    1
    29    35    36    1
    30    34    40    1
    31    36     6    1
    32    15     4    1
    33     6     5    1
    34     6     7    1
    35     6     8    1
    36    16     7    1
    37    21     8    1
    38    17     7    1
    39     4     5    1
    40     4     3    2
    41    19     8    1
    42     5     1    1
    43     7    18    1
    44     8    20    1
    45     3    14    1
    46     3     2    1
    47     1    13    1
    48     1     2    1
    49     2     9    1
    50    25    11    1
    51    22    10    1
    52    11    27    1
    53    11     9    1
    54    11    26    1
    55     9    10    1
    56     9    12    1
    57    10    23    1
    58    10    24    1
    59    30    12    1
    60    12    29    1
    61    12    28    1
