@<TRIPOS>MOLECULE
2,3,4,5,6,7,8,9,10,11
 27 28 0 0 0
SMALL
GASTEIGER

@<TRIPOS>ATOM
      1 SI          4.3415    2.0761    6.2066 Si      1  UNL1        0.0000
      2 C           3.3919    3.4857    5.3837 C.3     1  UNL1        0.0000
      3 C           2.2951    3.2898    4.5089 C.3     1  UNL1        0.0000
      4 C           2.1230    4.4518    3.7342 C.2     1  UNL1        0.0000
      5 C           3.1457    5.3564    4.0804 C.2     1  UNL1        0.0000
      6 C           3.9399    4.7499    5.0717 C.3     1  UNL1        0.0000
      7 C           5.0857    1.6158    4.5346 C.3     1  UNL1        0.0000
      8 C           4.3244    1.0081    3.5092 C.3     1  UNL1        0.0000
      9 C           4.9871    1.1880    2.2831 C.2     1  UNL1        0.0000
     10 C           6.1443    1.9538    2.5295 C.2     1  UNL1        0.0000
     11 C           6.1860    2.2428    3.9069 C.3     1  UNL1        0.0000
     12 C           5.6108    2.6463    7.5074 C.3     1  UNL1        0.0000
     13 C           3.2117    0.7229    6.9335 C.3     1  UNL1        0.0000
     14 H           1.6042    2.4570    4.5495 H       1  UNL1        0.0000
     15 H           1.2856    4.6706    3.0882 H       1  UNL1        0.0000
     16 H           3.2265    6.3770    3.7327 H       1  UNL1        0.0000
     17 H           4.7393    5.2315    5.6165 H       1  UNL1        0.0000
     18 H           3.4694    0.3694    3.6755 H       1  UNL1        0.0000
     19 H           4.7281    0.7204    1.3426 H       1  UNL1        0.0000
     20 H           6.9269    2.1666    1.8117 H       1  UNL1        0.0000
     21 H           7.0108    2.7118    4.4203 H       1  UNL1        0.0000
     22 H           6.3060    3.3782    7.1107 H       1  UNL1        0.0000
     23 H           5.1104    3.0924    8.3603 H       1  UNL1        0.0000
     24 H           6.1900    1.8034    7.8689 H       1  UNL1        0.0000
     25 H           2.4683    0.3849    6.2194 H       1  UNL1        0.0000
     26 H           3.7942   -0.1405    7.2372 H       1  UNL1        0.0000
     27 H           2.6861    1.0904    7.8085 H       1  UNL1        0.0000
@<TRIPOS>BOND
     1    19     9    1
     2    20    10    1
     3     9    10    2
     4     9     8    1
     5    10    11    1
     6    15     4    1
     7     8    18    1
     8     8     7    1
     9    16     5    1
    10     4     5    2
    11     4     3    1
    12    11    21    1
    13    11     7    1
    14     5     6    1
    15     3    14    1
    16     3     2    1
    17     7     1    1
    18     6     2    1
    19     6    17    1
    20     2     1    1
    21     1    13    1
    22     1    12    1
    23    25    13    1
    24    13    26    1
    25    13    27    1
    26    22    12    1
    27    12    24    1
    28    12    23    1
