@<TRIPOS>MOLECULE
10,11,12,13,14,15,16,17,18,19
 51 52 0 0 0
SMALL
GASTEIGER

@<TRIPOS>ATOM
      1 SI         -1.1490    8.5216    3.2653 Si      1  UNL1        0.0000
      2 C          -2.1576    7.1710    2.3537 C.3     1  UNL1        0.0000
      3 H          -2.2672    6.2965    2.9870 H       1  UNL1        0.0000
      4 H          -1.7425    6.8488    1.4082 H       1  UNL1        0.0000
      5 H          -3.1544    7.5495    2.1529 H       1  UNL1        0.0000
      6 C          -2.4396    9.0899    4.5642 C.3     1  UNL1        0.0000
      7 H          -3.2789    9.5632    4.0646 H       1  UNL1        0.0000
      8 H          -2.0686    9.7766    5.3136 H       1  UNL1        0.0000
      9 H          -2.8249    8.2188    5.0845 H       1  UNL1        0.0000
     10 C          -0.4366    9.8666    2.1219 C.3     1  UNL1        0.0000
     11 C           0.3373    9.5655    0.9473 C.2     1  UNL1        0.0000
     12 C           1.1547   10.6839    0.6456 C.2     1  UNL1        0.0000
     13 C           0.9051   11.6834    1.6267 C.2     1  UNL1        0.0000
     14 C          -0.0563   11.1866    2.5325 C.2     1  UNL1        0.0000
     15 C           0.5214    7.9715    3.9935 C.3     1  UNL1        0.0000
     16 C           1.5011    7.2078    3.2801 C.3     1  UNL1        0.0000
     17 C           2.7764    7.4779    3.8314 C.2     1  UNL1        0.0000
     18 C           2.6100    8.4079    4.8966 C.2     1  UNL1        0.0000
     19 C           1.2342    8.7178    4.9942 C.3     1  UNL1        0.0000
     20 C           0.0925    8.4164    0.0076 C.3     1  UNL1        0.0000
     21 H          -0.9271    8.4696   -0.3791 H       1  UNL1        0.0000
     22 H           0.2167    7.4480    0.4856 H       1  UNL1        0.0000
     23 H           0.7676    8.4681   -0.8447 H       1  UNL1        0.0000
     24 C           1.9896   10.9208   -0.5831 C.3     1  UNL1        0.0000
     25 H           1.4480   11.5592   -1.2853 H       1  UNL1        0.0000
     26 H           2.2386    9.9921   -1.0928 H       1  UNL1        0.0000
     27 H           2.9233   11.4235   -0.3254 H       1  UNL1        0.0000
     28 C           1.5072   13.0588    1.6099 C.3     1  UNL1        0.0000
     29 H           2.5900   13.0039    1.4743 H       1  UNL1        0.0000
     30 H           1.3087   13.5822    2.5423 H       1  UNL1        0.0000
     31 H           1.0940   13.6474    0.7874 H       1  UNL1        0.0000
     32 C          -0.6870   12.0235    3.6114 C.3     1  UNL1        0.0000
     33 H          -1.4523   11.4678    4.1440 H       1  UNL1        0.0000
     34 H          -1.1630   12.8988    3.1635 H       1  UNL1        0.0000
     35 H           0.0612   12.3884    4.3203 H       1  UNL1        0.0000
     36 C           1.2339    6.0338    2.3778 C.3     1  UNL1        0.0000
     37 H           1.7901    6.0897    1.4403 H       1  UNL1        0.0000
     38 H           0.1740    5.9382    2.1640 H       1  UNL1        0.0000
     39 H           1.5501    5.1168    2.8807 H       1  UNL1        0.0000
     40 C           4.0555    6.7514    3.5226 C.3     1  UNL1        0.0000
     41 H           4.9027    7.4385    3.4907 H       1  UNL1        0.0000
     42 H           3.9956    6.2397    2.5643 H       1  UNL1        0.0000
     43 H           4.2590    6.0054    4.2947 H       1  UNL1        0.0000
     44 C           3.7271    8.8636    5.7929 C.3     1  UNL1        0.0000
     45 H           3.9801    8.0842    6.5160 H       1  UNL1        0.0000
     46 H           3.4574    9.7664    6.3376 H       1  UNL1        0.0000
     47 H           4.6213    9.0802    5.2043 H       1  UNL1        0.0000
     48 C           0.6134    9.5631    6.0736 C.3     1  UNL1        0.0000
     49 H           1.3271    9.7206    6.8808 H       1  UNL1        0.0000
     50 H          -0.2559    9.0563    6.4916 H       1  UNL1        0.0000
     51 H           0.3057   10.5451    5.7068 H       1  UNL1        0.0000
@<TRIPOS>BOND
     1    25    24    1
     2    26    24    1
     3    23    20    1
     4    24    27    1
     5    24    12    1
     6    21    20    1
     7    20    22    1
     8    20    11    1
     9    12    11    2
    10    12    13    1
    11    31    28    1
    12    11    10    1
    13     4     2    1
    14    37    36    1
    15    29    28    1
    16    28    13    1
    17    28    30    1
    18    13    14    2
    19    10    14    1
    20    10     1    1
    21     5     2    1
    22    38    36    1
    23     2     3    1
    24     2     1    1
    25    36    39    1
    26    36    16    1
    27    14    32    1
    28    42    40    1
    29    34    32    1
    30     1    15    1
    31     1     6    1
    32    16    17    1
    33    16    15    1
    34    41    40    1
    35    40    17    1
    36    40    43    1
    37    32    33    1
    38    32    35    1
    39    17    18    2
    40    15    19    1
    41     7     6    1
    42     6     9    1
    43     6     8    1
    44    18    19    1
    45    18    44    1
    46    19    48    1
    47    47    44    1
    48    51    48    1
    49    44    46    1
    50    44    45    1
    51    48    50    1
    52    48    49    1
