@<TRIPOS>MOLECULE
2,3,4,5,6,8,9,10,11
 51 52 0 0 0
SMALL
GASTEIGER

@<TRIPOS>ATOM
      1 SI          2.7815    5.4301    1.6594 Si      1  UNL1        0.0000
      2 C           3.8390    7.0120    1.6404 C.3     1  UNL1        0.0000
      3 C           3.3223    8.3359    1.8276 C.2     1  UNL1        0.0000
      4 C           4.3773    9.1896    2.2289 C.2     1  UNL1        0.0000
      5 C           5.5504    8.4022    2.3587 C.2     1  UNL1        0.0000
      6 C           5.2219    7.0705    2.0117 C.2     1  UNL1        0.0000
      7 C           2.4819    5.4197    3.5334 C.3     1  UNL1        0.0000
      8 C           1.5965    6.3018    4.2287 C.2     1  UNL1        0.0000
      9 C           1.9880    6.3589    5.5833 C.2     1  UNL1        0.0000
     10 C           3.1496    5.5562    5.7455 C.2     1  UNL1        0.0000
     11 C           3.4609    4.9863    4.4898 C.2     1  UNL1        0.0000
     12 C           1.9720    8.8744    1.4399 C.3     1  UNL1        0.0000
     13 H           1.5030    9.4128    2.2693 H       1  UNL1        0.0000
     14 H           1.3060    8.0861    1.1082 H       1  UNL1        0.0000
     15 H           2.0805    9.5843    0.6155 H       1  UNL1        0.0000
     16 C           4.2922   10.6907    2.2249 C.3     1  UNL1        0.0000
     17 H           5.2127   11.1410    2.5892 H       1  UNL1        0.0000
     18 H           3.4620   11.0569    2.8302 H       1  UNL1        0.0000
     19 H           4.1338   11.0456    1.2033 H       1  UNL1        0.0000
     20 C           6.9437    8.8895    2.6416 C.3     1  UNL1        0.0000
     21 H           7.5138    8.9730    1.7127 H       1  UNL1        0.0000
     22 H           7.4729    8.2011    3.3018 H       1  UNL1        0.0000
     23 H           6.9327    9.8679    3.1176 H       1  UNL1        0.0000
     24 C           6.2759    6.0143    1.8186 C.3     1  UNL1        0.0000
     25 H           5.8488    5.0903    1.4430 H       1  UNL1        0.0000
     26 H           6.8243    5.8171    2.7441 H       1  UNL1        0.0000
     27 H           7.0075    6.3613    1.0844 H       1  UNL1        0.0000
     28 C           0.3094    6.8985    3.7265 C.3     1  UNL1        0.0000
     29 H          -0.5283    6.5149    4.3135 H       1  UNL1        0.0000
     30 H           0.1318    6.6338    2.6897 H       1  UNL1        0.0000
     31 H           0.3038    7.9883    3.8246 H       1  UNL1        0.0000
     32 C           1.1765    6.9438    6.7054 C.3     1  UNL1        0.0000
     33 H           0.4552    6.2050    7.0654 H       1  UNL1        0.0000
     34 H           0.6178    7.8207    6.3796 H       1  UNL1        0.0000
     35 H           1.8099    7.2220    7.5465 H       1  UNL1        0.0000
     36 C           3.8085    5.3053    7.0742 C.3     1  UNL1        0.0000
     37 H           4.0943    6.2481    7.5477 H       1  UNL1        0.0000
     38 H           4.7072    4.7020    6.9693 H       1  UNL1        0.0000
     39 H           3.1238    4.7824    7.7454 H       1  UNL1        0.0000
     40 C           4.4790    3.9021    4.2555 C.3     1  UNL1        0.0000
     41 H           5.2862    4.2177    3.5927 H       1  UNL1        0.0000
     42 H           3.9947    3.0328    3.8091 H       1  UNL1        0.0000
     43 H           4.9184    3.5821    5.1989 H       1  UNL1        0.0000
     44 C           1.2201    5.4313    0.5413 C.3     1  UNL1        0.0000
     45 H           1.5281    5.3865   -0.4983 H       1  UNL1        0.0000
     46 H           0.5597    6.2833    0.6414 H       1  UNL1        0.0000
     47 H           0.6320    4.5419    0.7449 H       1  UNL1        0.0000
     48 C           3.6223    3.8549    0.9556 C.3     1  UNL1        0.0000
     49 H           4.4582    3.4785    1.5294 H       1  UNL1        0.0000
     50 H           3.9707    4.0452   -0.0548 H       1  UNL1        0.0000
     51 H           2.8882    3.0577    0.8974 H       1  UNL1        0.0000
@<TRIPOS>BOND
     1    45    44    1
     2    50    48    1
     3    44    46    1
     4    44    47    1
     5    44     1    1
     6    15    12    1
     7    51    48    1
     8    48    49    1
     9    48     1    1
    10    27    24    1
    11    14    12    1
    12    19    16    1
    13    12     3    1
    14    12    13    1
    15    25    24    1
    16     2     1    1
    17     2     3    1
    18     2     6    1
    19     1     7    1
    20    21    20    1
    21    24     6    1
    22    24    26    1
    23     3     4    2
    24     6     5    2
    25    16     4    1
    26    16    17    1
    27    16    18    1
    28     4     5    1
    29     5    20    1
    30    20    23    1
    31    20    22    1
    32    30    28    1
    33     7     8    1
    34     7    11    1
    35    41    40    1
    36    28    31    1
    37    28     8    1
    38    28    29    1
    39    42    40    1
    40     8     9    2
    41    40    11    1
    42    40    43    1
    43    11    10    2
    44     9    10    1
    45     9    32    1
    46    10    36    1
    47    34    32    1
    48    32    33    1
    49    32    35    1
    50    38    36    1
    51    36    37    1
    52    36    39    1
