@<TRIPOS>MOLECULE
1,2,3,4,5,6,7,8,9,10
 51 52 0 0 0
SMALL
GASTEIGER

@<TRIPOS>ATOM
      1 C          11.1524    6.4016    8.7487 C.3     1  UNL1        0.0000
      2 C          10.4199    7.5857    8.4120 C.2     1  UNL1        0.0000
      3 C          11.2986    8.6955    8.4878 C.2     1  UNL1        0.0000
      4 C          12.5805    8.2159    8.8758 C.2     1  UNL1        0.0000
      5 C          12.4947    6.8147    9.0307 C.2     1  UNL1        0.0000
      6 C          10.0232    5.4654   11.1830 C.3     1  UNL1        0.0000
      7 C           8.9977    6.4269   11.4661 C.3     1  UNL1        0.0000
      8 C           9.3534    7.1207   12.6500 C.3     1  UNL1        0.0000
      9 C          10.5965    6.5967   13.1068 C.2     1  UNL1        0.0000
     10 C          10.9985    5.5759   12.2204 C.2     1  UNL1        0.0000
     11 C           9.0907    7.6348    7.7086 C.3     1  UNL1        0.0000
     12 H           8.4404    8.4118    8.1103 H       1  UNL1        0.0000
     13 H           8.5858    6.6751    7.7554 H       1  UNL1        0.0000
     14 H           9.2531    7.8671    6.6529 H       1  UNL1        0.0000
     15 C          11.0015   10.0998    8.0401 C.3     1  UNL1        0.0000
     16 H          11.4851   10.8301    8.6901 H       1  UNL1        0.0000
     17 H           9.9306   10.2950    8.0479 H       1  UNL1        0.0000
     18 H          11.3701   10.2594    7.0233 H       1  UNL1        0.0000
     19 C          13.8184    9.0677    8.9483 C.3     1  UNL1        0.0000
     20 H          14.5848    8.5999    9.5652 H       1  UNL1        0.0000
     21 H          13.5872   10.0465    9.3716 H       1  UNL1        0.0000
     22 H          14.2348    9.2269    7.9500 H       1  UNL1        0.0000
     23 C          13.6734    5.8898    9.1683 C.3     1  UNL1        0.0000
     24 H          14.6013    6.4363    9.0088 H       1  UNL1        0.0000
     25 H          13.6130    5.1054    8.4141 H       1  UNL1        0.0000
     26 H          13.7274    5.4151   10.1473 H       1  UNL1        0.0000
     27 C           7.6260    6.4015   10.8452 C.3     1  UNL1        0.0000
     28 H           7.2209    5.3903   10.9138 H       1  UNL1        0.0000
     29 H           7.6299    6.6856    9.7942 H       1  UNL1        0.0000
     30 H           6.9484    7.0616   11.3826 H       1  UNL1        0.0000
     31 C           8.5333    8.1034   13.4416 C.3     1  UNL1        0.0000
     32 H           7.6619    8.4404   12.8845 H       1  UNL1        0.0000
     33 H           9.1254    8.9845   13.7017 H       1  UNL1        0.0000
     34 H           8.1887    7.6444   14.3718 H       1  UNL1        0.0000
     35 C          11.2440    7.0044   14.4016 C.3     1  UNL1        0.0000
     36 H          10.6413    6.6769   15.2528 H       1  UNL1        0.0000
     37 H          11.3384    8.0918   14.4619 H       1  UNL1        0.0000
     38 H          12.2368    6.5698   14.5013 H       1  UNL1        0.0000
     39 C          12.0828    4.5673   12.4882 C.3     1  UNL1        0.0000
     40 H          13.0055    4.7702   11.9452 H       1  UNL1        0.0000
     41 H          11.7341    3.5760   12.2043 H       1  UNL1        0.0000
     42 H          12.3200    4.5465   13.5510 H       1  UNL1        0.0000
     43 C          11.5399    3.2816    9.3684 C.3     1  UNL1        0.0000
     44 H          11.0480    2.4257    9.8193 H       1  UNL1        0.0000
     45 H          12.4890    3.4173    9.8678 H       1  UNL1        0.0000
     46 H          11.7436    3.0265    8.3334 H       1  UNL1        0.0000
     47 C           8.8556    4.1433    8.4894 C.3     1  UNL1        0.0000
     48 H           7.9587    4.7384    8.5990 H       1  UNL1        0.0000
     49 H           8.6213    3.1438    8.8401 H       1  UNL1        0.0000
     50 H           9.0794    4.0696    7.4301 H       1  UNL1        0.0000
     51 SI         10.3837    4.8081    9.4415 Si      1  UNL1        0.0000
@<TRIPOS>BOND
     1    14    11    1
     2    18    15    1
     3    50    47    1
     4    11    13    1
     5    11    12    1
     6    11     2    1
     7    22    19    1
     8    15    17    1
     9    15     3    1
    10    15    16    1
    11    46    43    1
    12     2     3    2
    13     2     1    1
    14    25    23    1
    15     3     4    1
    16    47    48    1
    17    47    49    1
    18    47    51    1
    19     1     5    1
    20     1    51    1
    21     4    19    1
    22     4     5    2
    23    19    21    1
    24    19    20    1
    25    24    23    1
    26     5    23    1
    27    23    26    1
    28    43    51    1
    29    43    44    1
    30    43    45    1
    31    51     6    1
    32    29    27    1
    33    27    28    1
    34    27    30    1
    35    27     7    1
    36     6     7    1
    37     6    10    1
    38     7     8    1
    39    40    39    1
    40    41    39    1
    41    10    39    1
    42    10     9    2
    43    39    42    1
    44     8     9    1
    45     8    31    1
    46    32    31    1
    47     9    35    1
    48    31    33    1
    49    31    34    1
    50    35    37    1
    51    35    38    1
    52    35    36    1
