@<TRIPOS>MOLECULE
2,3,5,7,9,11,12,14,16,18
 27 28 0 0 0
SMALL
GASTEIGER

@<TRIPOS>ATOM
      1 SI         -0.8299    3.2776    5.7273 Si      1  UNL1        0.0000
      2 C           0.2279    4.1699    7.0129 C.3     1  UNL1        0.0000
      3 C           1.4211    3.6491    7.5824 C.3     1  UNL1        0.0000
      4 H           2.0946    2.9586    7.0852 H       1  UNL1        0.0000
      5 C           1.7065    4.3702    8.7610 C.2     1  UNL1        0.0000
      6 H           2.6130    4.3110    9.3494 H       1  UNL1        0.0000
      7 C           0.6752    5.3069    8.9595 C.2     1  UNL1        0.0000
      8 H           0.6720    6.0741    9.7229 H       1  UNL1        0.0000
      9 C          -0.2509    5.1676    7.9042 C.3     1  UNL1        0.0000
     10 H          -1.0772    5.8394    7.6957 H       1  UNL1        0.0000
     11 C          -1.6286    2.1303    6.9929 C.2     1  UNL1        0.0000
     12 C          -0.9739    1.0174    7.5769 C.2     1  UNL1        0.0000
     13 H          -0.2487    0.4014    7.0618 H       1  UNL1        0.0000
     14 C          -1.6083    0.7091    8.7978 C.2     1  UNL1        0.0000
     15 H          -1.4400   -0.1686    9.4104 H       1  UNL1        0.0000
     16 C          -2.6435    1.6494    8.9970 C.2     1  UNL1        0.0000
     17 H          -3.3857    1.5986    9.7848 H       1  UNL1        0.0000
     18 C          -2.6420    2.5328    7.8980 C.3     1  UNL1        0.0000
     19 H          -3.4031    3.2671    7.6692 H       1  UNL1        0.0000
     20 C          -2.0799    4.4370    4.8717 C.3     1  UNL1        0.0000
     21 H          -2.7397    3.8752    4.2199 H       1  UNL1        0.0000
     22 H          -1.5662    5.1746    4.2648 H       1  UNL1        0.0000
     23 H          -2.6978    4.9698    5.5868 H       1  UNL1        0.0000
     24 C           0.2170    2.3506    4.4299 C.3     1  UNL1        0.0000
     25 H          -0.4171    1.7652    3.7732 H       1  UNL1        0.0000
     26 H           0.9302    1.6741    4.8890 H       1  UNL1        0.0000
     27 H           0.7731    3.0495    3.8147 H       1  UNL1        0.0000
@<TRIPOS>BOND
     1    25    24    1
     2    27    24    1
     3    21    20    1
     4    22    20    1
     5    24    26    1
     6    24     1    1
     7    20    23    1
     8    20     1    1
     9     1    11    1
    10     1     2    1
    11    11    12    2
    12    11    18    1
    13     2     3    1
    14     2     9    1
    15    13    12    1
    16     4     3    1
    17    12    14    1
    18     3     5    1
    19    19    18    1
    20    10     9    1
    21    18    16    1
    22     9     7    1
    23     5     7    2
    24     5     6    1
    25    14    16    2
    26    14    15    1
    27     7     8    1
    28    16    17    1
