@<TRIPOS>MOLECULE
6,8,9,10,37,39,40,41,42
 65 70 0 0 0
SMALL
GASTEIGER

@<TRIPOS>ATOM
      1 SI          6.5471    2.5103    3.8911 Si      1  UNL1        0.0000
      2 S           3.1760    4.0637    4.8124 S.3     1  UNL1        0.0000
      3 S           4.3059    4.4431    1.4526 S.3     1  UNL1        0.0000
      4 C           2.6151    5.4679    5.7182 C.2     1  UNL1        0.0000
      5 C           3.6068    6.0968    6.4103 C.2     1  UNL1        0.0000
      6 C           6.2135    5.5568    6.6886 C.2     1  UNL1        0.0000
      7 H           6.5838    6.2440    7.4396 H       1  UNL1        0.0000
      8 C           6.9445    4.4836    6.1291 C.3     1  UNL1        0.0000
      9 C           6.0811    3.6707    5.3171 C.3     1  UNL1        0.0000
     10 C           4.8765    5.4537    6.2228 C.2     1  UNL1        0.0000
     11 C           4.8111    4.3194    5.3670 C.3     1  UNL1        0.0000
     12 C           1.1847    5.8521    5.5828 C.3     1  UNL1        0.0000
     13 H           0.8500    5.6834    4.5609 H       1  UNL1        0.0000
     14 H           0.5539    5.2561    6.2444 H       1  UNL1        0.0000
     15 H           1.0560    6.9039    5.8289 H       1  UNL1        0.0000
     16 C           3.4793    7.3319    7.1884 C.ar    1  UNL1        0.0000
     17 C           2.4357    7.5337    8.0869 C.ar    1  UNL1        0.0000
     18 H           1.7022    6.7555    8.2360 H       1  UNL1        0.0000
     19 C           2.3529    8.7106    8.8088 C.ar    1  UNL1        0.0000
     20 H           1.5408    8.8553    9.5067 H       1  UNL1        0.0000
     21 C           3.3073    9.6994    8.6418 C.ar    1  UNL1        0.0000
     22 H           3.2395   10.6186    9.2048 H       1  UNL1        0.0000
     23 C           4.3510    9.5049    7.7511 C.ar    1  UNL1        0.0000
     24 H           5.0968   10.2743    7.6158 H       1  UNL1        0.0000
     25 C           4.4430    8.3290    7.0312 C.ar    1  UNL1        0.0000
     26 H           5.2521    8.1912    6.3195 H       1  UNL1        0.0000
     27 C           8.3720    4.2000    6.5045 C.3     1  UNL1        0.0000
     28 H           8.7651    3.3466    5.9609 H       1  UNL1        0.0000
     29 H           8.9996    5.0750    6.3166 H       1  UNL1        0.0000
     30 H           8.4344    3.9753    7.5710 H       1  UNL1        0.0000
     31 C           7.9236    1.2299    4.2074 C.3     1  UNL1        0.0000
     32 H           8.8314    1.6263    4.6451 H       1  UNL1        0.0000
     33 H           7.5505    0.4613    4.8750 H       1  UNL1        0.0000
     34 H           8.1928    0.7497    3.2732 H       1  UNL1        0.0000
     35 C           4.3186    6.0305    0.6866 C.2     1  UNL1        0.0000
     36 C           5.4873    6.7084    0.8660 C.2     1  UNL1        0.0000
     37 C           7.7665    6.0488    2.1049 C.2     1  UNL1        0.0000
     38 H           8.4713    6.8390    1.8762 H       1  UNL1        0.0000
     39 C           8.0781    4.8393    2.7670 C.3     1  UNL1        0.0000
     40 C           6.9503    3.9501    2.7243 C.3     1  UNL1        0.0000
     41 C           6.4258    5.9537    1.6475 C.2     1  UNL1        0.0000
     42 C           5.9275    4.6840    2.0525 C.3     1  UNL1        0.0000
     43 C           9.4580    4.5268    3.2740 C.3     1  UNL1        0.0000
     44 H           9.5015    3.5380    3.7201 H       1  UNL1        0.0000
     45 H          10.1684    4.5519    2.4455 H       1  UNL1        0.0000
     46 H           9.7799    5.2741    4.0038 H       1  UNL1        0.0000
     47 C           5.7776    8.0765    0.4285 C.ar    1  UNL1        0.0000
     48 C           6.3892    8.9540    1.3250 C.ar    1  UNL1        0.0000
     49 H           6.6147    8.6239    2.3352 H       1  UNL1        0.0000
     50 C           6.6755   10.2507    0.9431 C.ar    1  UNL1        0.0000
     51 H           7.1409   10.9250    1.6469 H       1  UNL1        0.0000
     52 C           6.3665   10.6872   -0.3353 C.ar    1  UNL1        0.0000
     53 H           6.5933   11.7009   -0.6313 H       1  UNL1        0.0000
     54 C           5.7676    9.8192   -1.2322 C.ar    1  UNL1        0.0000
     55 H           5.5305   10.1533   -2.2320 H       1  UNL1        0.0000
     56 C           5.4733    8.5215   -0.8548 C.ar    1  UNL1        0.0000
     57 H           5.0269    7.8404   -1.5636 H       1  UNL1        0.0000
     58 C           3.0738    6.4814    0.0094 C.3     1  UNL1        0.0000
     59 H           2.2033    6.1454    0.5700 H       1  UNL1        0.0000
     60 H           3.0561    7.5673   -0.0549 H       1  UNL1        0.0000
     61 H           3.0032    6.0682   -0.9980 H       1  UNL1        0.0000
     62 C           5.0272    1.5437    3.2782 C.3     1  UNL1        0.0000
     63 H           4.1943    2.1958    3.0368 H       1  UNL1        0.0000
     64 H           5.2691    0.9747    2.3866 H       1  UNL1        0.0000
     65 H           4.6881    0.8434    4.0343 H       1  UNL1        0.0000
@<TRIPOS>BOND
     1    55    54    1
     2    57    56    1
     3    54    56   ar
     4    54    52   ar
     5    61    58    1
     6    56    47   ar
     7    53    52    1
     8    52    50   ar
     9    60    58    1
    10    58    59    1
    11    58    35    1
    12    47    36    1
    13    47    48   ar
    14    35    36    2
    15    35     3    1
    16    36    41    1
    17    50    48   ar
    18    50    51    1
    19    48    49    1
    20     3    42    1
    21    41    42    1
    22    41    37    2
    23    38    37    1
    24    42    40    1
    25    37    39    1
    26    64    62    1
    27    45    43    1
    28    40    39    1
    29    40     1    1
    30    39    43    1
    31    63    62    1
    32    34    31    1
    33    43    44    1
    34    43    46    1
    35    62     1    1
    36    62    65    1
    37     1    31    1
    38     1     9    1
    39    31    32    1
    40    31    33    1
    41    13    12    1
    42     2    11    1
    43     2     4    1
    44     9    11    1
    45     9     8    1
    46    11    10    1
    47    12     4    1
    48    12    15    1
    49    12    14    1
    50     4     5    2
    51    28    27    1
    52     8    27    1
    53     8     6    1
    54    10     5    1
    55    10     6    2
    56    29    27    1
    57    26    25    1
    58     5    16    1
    59    27    30    1
    60     6     7    1
    61    25    16   ar
    62    25    23   ar
    63    16    17   ar
    64    24    23    1
    65    23    21   ar
    66    17    18    1
    67    17    19   ar
    68    21    19   ar
    69    21    22    1
    70    19    20    1
