@<TRIPOS>MOLECULE
2,3,4,5,6,7,8,10,11,13
 64 65 0 0 0
SMALL
GASTEIGER

@<TRIPOS>ATOM
      1 SI          7.5987    2.5911    3.0302 Si      1  UNL1        0.0000
      2 C           6.3797    3.5499    1.9367 C.3     1  UNL1        0.0000
      3 C           5.5585    4.6312    2.3904 C.3     1  UNL1        0.0000
      4 C           4.4522    4.7609    1.5137 C.2     1  UNL1        0.0000
      5 C           4.5619    3.7518    0.5181 C.2     1  UNL1        0.0000
      6 C           5.7229    2.9880    0.7909 C.3     1  UNL1        0.0000
      7 C           6.2516    1.4161    3.6482 C.3     1  UNL1        0.0000
      8 C           5.3474    1.6821    4.7184 C.3     1  UNL1        0.0000
      9 H           5.5686    2.3154    5.5703 H       1  UNL1        0.0000
     10 C           4.2095    0.8460    4.5793 C.3     1  UNL1        0.0000
     11 C           4.3894    0.0937    3.3889 C.2     1  UNL1        0.0000
     12 H           3.7441   -0.7005    3.0340 H       1  UNL1        0.0000
     13 C           5.6198    0.4570    2.8105 C.2     1  UNL1        0.0000
     14 H           6.0785   -0.0391    1.9644 H       1  UNL1        0.0000
     15 C           8.3929    3.5312    4.4877 C.3     1  UNL1        0.0000
     16 H           9.0291    2.8539    5.0480 H       1  UNL1        0.0000
     17 H           7.6633    3.9407    5.1766 H       1  UNL1        0.0000
     18 H           9.0182    4.3441    4.1354 H       1  UNL1        0.0000
     19 C           9.0139    1.7117    2.0926 C.3     1  UNL1        0.0000
     20 H           9.3373    2.2830    1.2290 H       1  UNL1        0.0000
     21 H           8.7352    0.7191    1.7555 H       1  UNL1        0.0000
     22 H           9.8714    1.5980    2.7464 H       1  UNL1        0.0000
     23 C           3.0878    0.6044    5.5690 C.3     1  UNL1        0.0000
     24 C           3.1268    1.6082    6.7249 C.3     1  UNL1        0.0000
     25 H           4.0697    1.5534    7.2624 H       1  UNL1        0.0000
     26 H           2.3232    1.3913    7.4254 H       1  UNL1        0.0000
     27 H           2.9921    2.6213    6.3520 H       1  UNL1        0.0000
     28 C           1.7390    0.7334    4.8420 C.3     1  UNL1        0.0000
     29 H           1.6292    1.7330    4.4166 H       1  UNL1        0.0000
     30 H           0.9197    0.5668    5.5389 H       1  UNL1        0.0000
     31 H           1.6528    0.0050    4.0370 H       1  UNL1        0.0000
     32 C           3.2238   -0.8365    6.1118 C.3     1  UNL1        0.0000
     33 H           2.3916   -1.0439    6.7874 H       1  UNL1        0.0000
     34 H           3.1481   -1.5336    5.2749 H       1  UNL1        0.0000
     35 C           4.5525   -1.0947    6.8385 C.3     1  UNL1        0.0000
     36 H           5.3605   -0.6044    6.2968 H       1  UNL1        0.0000
     37 H           4.5084   -0.6703    7.8434 H       1  UNL1        0.0000
     38 C           4.8230   -2.5644    6.9438 C.2     1  UNL1        0.0000
     39 H           4.2572   -3.0843    7.7063 H       1  UNL1        0.0000
     40 C           5.6529   -3.2551    6.1717 C.2     1  UNL1        0.0000
     41 C           5.8581   -4.7297    6.3577 C.3     1  UNL1        0.0000
     42 H           5.2858   -5.1053    7.2020 H       1  UNL1        0.0000
     43 H           6.9134   -4.9425    6.5278 H       1  UNL1        0.0000
     44 H           5.5516   -5.2702    5.4619 H       1  UNL1        0.0000
     45 C           6.4753   -2.6353    5.0754 C.3     1  UNL1        0.0000
     46 H           5.9137   -1.8796    4.5326 H       1  UNL1        0.0000
     47 H           6.8011   -3.3981    4.3722 H       1  UNL1        0.0000
     48 H           7.3641   -2.1598    5.4913 H       1  UNL1        0.0000
     49 C           5.8728    5.5447    3.5433 C.3     1  UNL1        0.0000
     50 H           5.4072    6.5173    3.3923 H       1  UNL1        0.0000
     51 H           6.9471    5.6946    3.6236 H       1  UNL1        0.0000
     52 H           5.5001    5.1418    4.4914 H       1  UNL1        0.0000
     53 C           3.3706    5.8032    1.5434 C.3     1  UNL1        0.0000
     54 H           3.4893    6.5010    0.7116 H       1  UNL1        0.0000
     55 H           3.3895    6.3654    2.4749 H       1  UNL1        0.0000
     56 H           2.3870    5.3342    1.4535 H       1  UNL1        0.0000
     57 C           3.6920    3.6336   -0.6993 C.3     1  UNL1        0.0000
     58 H           2.6705    3.9413   -0.4789 H       1  UNL1        0.0000
     59 H           3.6671    2.6090   -1.0682 H       1  UNL1        0.0000
     60 H           4.0746    4.2759   -1.4966 H       1  UNL1        0.0000
     61 C           6.2229    1.9031   -0.1240 C.3     1  UNL1        0.0000
     62 H           5.4690    1.1186   -0.2487 H       1  UNL1        0.0000
     63 H           7.1405    1.4598    0.2508 H       1  UNL1        0.0000
     64 H           6.4305    2.3172   -1.1132 H       1  UNL1        0.0000
@<TRIPOS>BOND
     1    60    57    1
     2    64    61    1
     3    59    57    1
     4    57    58    1
     5    57     5    1
     6    62    61    1
     7    61    63    1
     8    61     6    1
     9     5     6    1
    10     5     4    2
    11    54    53    1
    12     6     2    1
    13    20    19    1
    14    56    53    1
    15     4    53    1
    16     4     3    1
    17    53    55    1
    18    21    19    1
    19     2     3    1
    20     2     1    1
    21    14    13    1
    22    19    22    1
    23    19     1    1
    24     3    49    1
    25    13    11    2
    26    13     7    1
    27     1     7    1
    28     1    15    1
    29    12    11    1
    30    11    10    1
    31    50    49    1
    32    49    51    1
    33    49    52    1
    34     7     8    1
    35    31    28    1
    36    18    15    1
    37    47    45    1
    38    29    28    1
    39    15    16    1
    40    15    17    1
    41    46    45    1
    42    10     8    1
    43    10    23    1
    44     8     9    1
    45    28    30    1
    46    28    23    1
    47    45    48    1
    48    45    40    1
    49    34    32    1
    50    44    41    1
    51    23    32    1
    52    23    24    1
    53    32    33    1
    54    32    35    1
    55    40    41    1
    56    40    38    2
    57    36    35    1
    58    27    24    1
    59    41    43    1
    60    41    42    1
    61    24    25    1
    62    24    26    1
    63    35    38    1
    64    35    37    1
    65    38    39    1
