@<TRIPOS>MOLECULE
2,3,5,7,9,25,26,28,30,32
 34 36 0 0 0
SMALL
GASTEIGER

@<TRIPOS>ATOM
      1 SI          8.3695    2.0296    0.5870 Si      1  UNL1        0.0000
      2 C           9.6078    0.6991    1.1284 C.3     1  UNL1        0.0000
      3 C          10.8985    0.5727    0.5348 C.3     1  UNL1        0.0000
      4 H          11.1395    0.7972   -0.4964 H       1  UNL1        0.0000
      5 C          11.7389   -0.1209    1.4223 C.2     1  UNL1        0.0000
      6 H          12.7477   -0.4541    1.2164 H       1  UNL1        0.0000
      7 C          11.0075   -0.3810    2.5972 C.2     1  UNL1        0.0000
      8 H          11.3591   -0.9401    3.4555 H       1  UNL1        0.0000
      9 C           9.7007    0.1217    2.4155 C.3     1  UNL1        0.0000
     10 H           8.8789   -0.0238    3.1040 H       1  UNL1        0.0000
     11 C           6.7991    2.0296    1.6403 C.ar    1  UNL1        0.0000
     12 C           6.8631    2.0296    3.0339 C.ar    1  UNL1        0.0000
     13 H           7.8248    2.0296    3.5323 H       1  UNL1        0.0000
     14 C           5.7098    2.0295    3.7975 C.ar    1  UNL1        0.0000
     15 H           5.7810    2.0295    4.8753 H       1  UNL1        0.0000
     16 C           4.4681    2.0294    3.1839 C.ar    1  UNL1        0.0000
     17 H           3.5678    2.0294    3.7805 H       1  UNL1        0.0000
     18 C           4.3873    2.0294    1.8017 C.ar    1  UNL1        0.0000
     19 H           3.4222    2.0294    1.3164 H       1  UNL1        0.0000
     20 C           5.5426    2.0295    1.0414 C.ar    1  UNL1        0.0000
     21 H           5.4705    2.0295   -0.0354 H       1  UNL1        0.0000
     22 C           8.0375    2.0296   -1.2865 C.3     1  UNL1        0.0000
     23 H           7.4693    2.9069   -1.5765 H       1  UNL1        0.0000
     24 H           8.9585    2.0295   -1.8601 H       1  UNL1        0.0000
     25 C           9.6079    3.3600    1.1283 C.3     1  UNL1        0.0000
     26 C          10.8985    3.4864    0.5347 C.2     1  UNL1        0.0000
     27 H          11.1395    3.2618   -0.4965 H       1  UNL1        0.0000
     28 C          11.7390    4.1799    1.4222 C.2     1  UNL1        0.0000
     29 H          12.7479    4.5131    1.2163 H       1  UNL1        0.0000
     30 C          11.0076    4.4401    2.5972 C.2     1  UNL1        0.0000
     31 H          11.3593    4.9992    3.4554 H       1  UNL1        0.0000
     32 C           9.7008    3.9375    2.4155 C.2     1  UNL1        0.0000
     33 H           8.8790    4.0830    3.1039 H       1  UNL1        0.0000
     34 H           7.4692    1.1524   -1.5765 H       1  UNL1        0.0000
@<TRIPOS>BOND
     1    24    22    1
     2    34    22    1
     3    23    22    1
     4    22     1    1
     5    27    26    1
     6     4     3    1
     7    21    20    1
     8    26    25    1
     9    26    28    2
    10     3     2    1
    11     3     5    1
    12     1    25    1
    13     1     2    1
    14     1    11    1
    15    20    11   ar
    16    20    18   ar
    17    25    32    1
    18     2     9    1
    19    29    28    1
    20     6     5    1
    21    19    18    1
    22    28    30    1
    23     5     7    2
    24    11    12   ar
    25    18    16   ar
    26    32    30    2
    27    32    33    1
    28     9     7    1
    29     9    10    1
    30    30    31    1
    31     7     8    1
    32    12    13    1
    33    12    14   ar
    34    16    17    1
    35    16    14   ar
    36    14    15    1
