@<TRIPOS>MOLECULE
1,2,3,4,5,23,24,25,26
 58 60 0 0 0
SMALL
GASTEIGER

@<TRIPOS>ATOM
      1 C           5.1099    1.9248    2.3296 C.3     1  UNL1        0.0000
      2 C           6.4167    1.3555    2.2298 C.2     1  UNL1        0.0000
      3 C           6.2852   -0.0294    1.9430 C.2     1  UNL1        0.0000
      4 C           4.9100   -0.3432    1.9225 C.2     1  UNL1        0.0000
      5 C           4.1816    0.8415    2.2049 C.2     1  UNL1        0.0000
      6 C           7.7283    2.0757    2.1423 C.3     1  UNL1        0.0000
      7 H           8.1513    1.9405    1.1445 H       1  UNL1        0.0000
      8 H           8.4414    1.6705    2.8620 H       1  UNL1        0.0000
      9 H           7.6097    3.1393    2.3161 H       1  UNL1        0.0000
     10 C           7.3904   -0.9662    1.5681 C.3     1  UNL1        0.0000
     11 H           7.2294   -1.9502    2.0089 H       1  UNL1        0.0000
     12 H           8.3531   -0.5929    1.9091 H       1  UNL1        0.0000
     13 H           7.4232   -1.0809    0.4817 H       1  UNL1        0.0000
     14 C           4.3231   -1.6544    1.5050 C.3     1  UNL1        0.0000
     15 H           4.2103   -1.6754    0.4179 H       1  UNL1        0.0000
     16 H           3.3453   -1.8093    1.9564 H       1  UNL1        0.0000
     17 H           4.9709   -2.4797    1.7969 H       1  UNL1        0.0000
     18 C           2.6916    0.9108    2.0541 C.3     1  UNL1        0.0000
     19 H           2.4225    0.6696    1.0230 H       1  UNL1        0.0000
     20 H           2.3051    1.8994    2.2796 H       1  UNL1        0.0000
     21 H           2.2038    0.1786    2.6991 H       1  UNL1        0.0000
     22 C           4.8585    2.6782    4.8709 C.3     1  UNL1        0.0000
     23 C           3.8681    1.7832    5.3900 C.3     1  UNL1        0.0000
     24 C           4.4712    0.9804    6.3929 C.2     1  UNL1        0.0000
     25 C           5.8415    1.3098    6.4548 C.2     1  UNL1        0.0000
     26 C           6.0941    2.3265    5.4960 C.3     1  UNL1        0.0000
     27 C           2.3813    1.8398    5.2042 C.3     1  UNL1        0.0000
     28 H           1.9820    0.8486    4.9848 H       1  UNL1        0.0000
     29 H           2.0966    2.5231    4.4107 H       1  UNL1        0.0000
     30 H           1.9149    2.1841    6.1303 H       1  UNL1        0.0000
     31 C           3.7580    0.0678    7.3398 C.3     1  UNL1        0.0000
     32 H           4.3836   -0.7846    7.6020 H       1  UNL1        0.0000
     33 H           2.8337   -0.3064    6.9052 H       1  UNL1        0.0000
     34 H           3.5166    0.6092    8.2580 H       1  UNL1        0.0000
     35 C           6.8090    0.7856    7.4689 C.3     1  UNL1        0.0000
     36 H           6.6411    1.2814    8.4283 H       1  UNL1        0.0000
     37 H           7.8362    0.9627    7.1594 H       1  UNL1        0.0000
     38 H           6.6745   -0.2865    7.6130 H       1  UNL1        0.0000
     39 C           7.4034    3.0519    5.4169 C.3     1  UNL1        0.0000
     40 H           7.6318    3.4959    6.3883 H       1  UNL1        0.0000
     41 H           7.3725    3.8483    4.6819 H       1  UNL1        0.0000
     42 H           8.2132    2.3638    5.1689 H       1  UNL1        0.0000
     43 SI          4.7142    3.5619    3.1999 Si      1  UNL1        0.0000
     44 C           5.8083    5.0953    2.8525 C.3     1  UNL1        0.0000
     45 H           6.8743    4.9683    2.9948 H       1  UNL1        0.0000
     46 H           5.4863    5.9092    3.4949 H       1  UNL1        0.0000
     47 H           5.6502    5.4139    1.8266 H       1  UNL1        0.0000
     48 C           3.0111    4.3092    2.8084 C.ar    1  UNL1        0.0000
     49 C           2.5201    4.3153    1.5065 C.ar    1  UNL1        0.0000
     50 H           3.0771    3.8106    0.7300 H       1  UNL1        0.0000
     51 C           1.3314    4.9502    1.1944 C.ar    1  UNL1        0.0000
     52 H           0.9639    4.9388    0.1784 H       1  UNL1        0.0000
     53 C           0.6138    5.6015    2.1835 C.ar    1  UNL1        0.0000
     54 H          -0.3156    6.0965    1.9430 H       1  UNL1        0.0000
     55 C           1.0962    5.6197    3.4813 C.ar    1  UNL1        0.0000
     56 H           0.5445    6.1326    4.2559 H       1  UNL1        0.0000
     57 C           2.2858    4.9829    3.7862 C.ar    1  UNL1        0.0000
     58 H           2.6588    5.0027    4.8003 H       1  UNL1        0.0000
@<TRIPOS>BOND
     1    52    51    1
     2    15    14    1
     3    13    10    1
     4    50    49    1
     5    19    18    1
     6     7     6    1
     7    51    49   ar
     8    51    53   ar
     9    14    17    1
    10    14     4    1
    11    14    16    1
    12    49    48   ar
    13    10    12    1
    14    10     3    1
    15    10    11    1
    16    47    44    1
    17     4     3    1
    18     4     5    2
    19    54    53    1
    20     3     2    2
    21    18     5    1
    22    18    20    1
    23    18    21    1
    24     6     2    1
    25     6     9    1
    26     6     8    1
    27    53    55   ar
    28     5     1    1
    29     2     1    1
    30     1    43    1
    31    48    43    1
    32    48    57   ar
    33    44    45    1
    34    44    43    1
    35    44    46    1
    36    43    22    1
    37    55    57   ar
    38    55    56    1
    39    57    58    1
    40    29    27    1
    41    41    39    1
    42    22    23    1
    43    22    26    1
    44    28    27    1
    45    42    39    1
    46    27    23    1
    47    27    30    1
    48    23    24    1
    49    39    26    1
    50    39    40    1
    51    26    25    1
    52    24    25    2
    53    24    31    1
    54    25    35    1
    55    33    31    1
    56    37    35    1
    57    31    32    1
    58    31    34    1
    59    35    38    1
    60    35    36    1
