@<TRIPOS>MOLECULE
4,5,6,7,8,25,26,27,28,29
 85 90 0 0 0
SMALL
GASTEIGER

@<TRIPOS>ATOM
      1 SI          1.2804    7.1706    3.8753 Si      1  UNL1        0.0000
      2 O           2.8805    8.0161    1.1038 O.3     1  UNL1        0.0000
      3 O           0.0840    5.6311    6.5430 O.3     1  UNL1        0.0000
      4 C           1.3782    3.6552    1.7505 C.3     1  UNL1        0.0000
      5 C           0.7990    4.5450    2.6860 C.3     1  UNL1        0.0000
      6 C           1.3720    5.8467    2.5071 C.3     1  UNL1        0.0000
      7 C           2.2386    5.7549    1.3631 C.ar    1  UNL1        0.0000
      8 C           2.2164    4.4067    0.8764 C.ar    1  UNL1        0.0000
      9 C           2.9742    4.0207   -0.2452 C.ar    1  UNL1        0.0000
     10 C           3.7242    4.9962   -0.8705 C.ar    1  UNL1        0.0000
     11 C           3.7128    6.3285   -0.4466 C.ar    1  UNL1        0.0000
     12 C           2.9740    6.7257    0.6505 C.ar    1  UNL1        0.0000
     13 C          -0.3611    4.1664    3.5606 C.3     1  UNL1        0.0000
     14 C           3.5635    9.0239    0.4010 C.3     1  UNL1        0.0000
     15 C           2.9575    2.6341   -0.7374 C.ar    1  UNL1        0.0000
     16 C           1.7514    1.9961   -1.0092 C.ar    1  UNL1        0.0000
     17 C           1.7282    0.6940   -1.4844 C.ar    1  UNL1        0.0000
     18 C           2.9316    0.0297   -1.6814 C.ar    1  UNL1        0.0000
     19 C           4.1464    0.6456   -1.4166 C.ar    1  UNL1        0.0000
     20 C           4.1493    1.9523   -0.9493 C.ar    1  UNL1        0.0000
     21 C           0.4241    0.0261   -1.8059 C.3     1  UNL1        0.0000
     22 C           5.4395   -0.0881   -1.6110 C.3     1  UNL1        0.0000
     23 C           1.9048    8.9683    3.6918 C.3     1  UNL1        0.0000
     24 C          -0.5254    7.5027    4.4059 C.3     1  UNL1        0.0000
     25 C           4.4654    4.8913    5.1582 C.3     1  UNL1        0.0000
     26 C           3.8892    5.9796    4.4731 C.3     1  UNL1        0.0000
     27 C           2.5201    6.1204    4.8748 C.3     1  UNL1        0.0000
     28 C           2.2942    5.1145    5.8790 C.ar    1  UNL1        0.0000
     29 C           3.5031    4.3608    6.0597 C.ar    1  UNL1        0.0000
     30 C           3.5937    3.3297    7.0198 C.ar    1  UNL1        0.0000
     31 C           2.4935    3.1200    7.8240 C.ar    1  UNL1        0.0000
     32 C           1.3183    3.8696    7.6907 C.ar    1  UNL1        0.0000
     33 C           1.1967    4.8531    6.7312 C.ar    1  UNL1        0.0000
     34 C           4.7030    6.8819    3.5929 C.3     1  UNL1        0.0000
     35 C          -1.0159    5.4443    7.3993 C.3     1  UNL1        0.0000
     36 C           4.8071    2.5081    7.1275 C.ar    1  UNL1        0.0000
     37 C           5.3640    2.2102    8.3675 C.ar    1  UNL1        0.0000
     38 C           6.5094    1.4357    8.4637 C.ar    1  UNL1        0.0000
     39 C           7.0945    0.9527    7.3001 C.ar    1  UNL1        0.0000
     40 C           6.5497    1.2259    6.0524 C.ar    1  UNL1        0.0000
     41 C           5.4057    2.0048    5.9757 C.ar    1  UNL1        0.0000
     42 C           7.1169    1.1153    9.7975 C.3     1  UNL1        0.0000
     43 C           7.1788    0.6788    4.8068 C.3     1  UNL1        0.0000
     44 H           1.0719    2.6276    1.5930 H       1  UNL1        0.0000
     45 H           4.3123    4.7351   -1.7379 H       1  UNL1        0.0000
     46 H           4.2891    7.0453   -1.0095 H       1  UNL1        0.0000
     47 H          -1.2878    4.5319    3.1115 H       1  UNL1        0.0000
     48 H          -0.2751    4.5867    4.5598 H       1  UNL1        0.0000
     49 H          -0.4266    3.0800    3.6412 H       1  UNL1        0.0000
     50 H           4.6455    8.8549    0.4035 H       1  UNL1        0.0000
     51 H           3.3438    9.9516    0.9276 H       1  UNL1        0.0000
     52 H           3.2112    9.1021   -0.6322 H       1  UNL1        0.0000
     53 H           0.8238    2.5339   -0.8710 H       1  UNL1        0.0000
     54 H           2.9203   -0.9877   -2.0481 H       1  UNL1        0.0000
     55 H           5.0854    2.4410   -0.7211 H       1  UNL1        0.0000
     56 H           0.1144    0.2821   -2.8199 H       1  UNL1        0.0000
     57 H          -0.3577    0.3538   -1.1242 H       1  UNL1        0.0000
     58 H           0.5159   -1.0558   -1.7438 H       1  UNL1        0.0000
     59 H           5.2928   -0.9884   -2.2030 H       1  UNL1        0.0000
     60 H           5.8516   -0.3762   -0.6438 H       1  UNL1        0.0000
     61 H           6.1710    0.5460   -2.1084 H       1  UNL1        0.0000
     62 H           2.9799    9.0765    3.6485 H       1  UNL1        0.0000
     63 H           1.5500    9.5453    4.5407 H       1  UNL1        0.0000
     64 H           1.4881    9.4146    2.7966 H       1  UNL1        0.0000
     65 H          -0.9649    8.2128    3.7114 H       1  UNL1        0.0000
     66 H          -0.5392    7.9568    5.3901 H       1  UNL1        0.0000
     67 H          -1.1627    6.6306    4.4355 H       1  UNL1        0.0000
     68 H           5.5145    4.6257    5.1302 H       1  UNL1        0.0000
     69 H           2.5237    2.3417    8.5718 H       1  UNL1        0.0000
     70 H           0.5010    3.6524    8.3599 H       1  UNL1        0.0000
     71 H           5.4683    6.3000    3.0736 H       1  UNL1        0.0000
     72 H           5.2069    7.6329    4.2069 H       1  UNL1        0.0000
     73 H           4.0896    7.3950    2.8605 H       1  UNL1        0.0000
     74 H          -1.7637    6.1693    7.0811 H       1  UNL1        0.0000
     75 H          -0.7486    5.6348    8.4432 H       1  UNL1        0.0000
     76 H          -1.4290    4.4341    7.3088 H       1  UNL1        0.0000
     77 H           4.9066    2.6075    9.2627 H       1  UNL1        0.0000
     78 H           7.9903    0.3506    7.3692 H       1  UNL1        0.0000
     79 H           4.9578    2.1994    5.0082 H       1  UNL1        0.0000
     80 H           7.0566    0.0447    9.9921 H       1  UNL1        0.0000
     81 H           6.6012    1.6410   10.5972 H       1  UNL1        0.0000
     82 H           8.1687    1.3974    9.8155 H       1  UNL1        0.0000
     83 H           6.7961    1.1916    3.9276 H       1  UNL1        0.0000
     84 H           6.9521   -0.3831    4.7092 H       1  UNL1        0.0000
     85 H           8.2615    0.7878    4.8403 H       1  UNL1        0.0000
@<TRIPOS>BOND
     1    56    21    1
     2    59    22    1
     3    61    22    1
     4    54    18    1
     5    21    58    1
     6    21    17    1
     7    21    57    1
     8    45    10    1
     9    18    17   ar
    10    18    19   ar
    11    22    19    1
    12    22    60    1
    13    17    16   ar
    14    19    20   ar
    15    46    11    1
    16    16    53    1
    17    16    15   ar
    18    20    15   ar
    19    20    55    1
    20    10    11   ar
    21    10     9   ar
    22    15     9    1
    23    52    14    1
    24    11    12   ar
    25     9     8   ar
    26    14    50    1
    27    14    51    1
    28    14     2    1
    29    12     2    1
    30    12     7   ar
    31     8     7   ar
    32     8     4    1
    33     7     6    1
    34    44     4    1
    35     4     5    1
    36     6     5    1
    37     6     1    1
    38     5    13    1
    39    64    23    1
    40    73    34    1
    41    71    34    1
    42    47    13    1
    43    13    49    1
    44    13    48    1
    45    34    72    1
    46    34    26    1
    47    62    23    1
    48    23     1    1
    49    23    63    1
    50    65    24    1
    51     1    24    1
    52     1    27    1
    53    83    43    1
    54    24    67    1
    55    24    66    1
    56    26    27    1
    57    26    25    1
    58    84    43    1
    59    43    85    1
    60    43    40    1
    61    27    28    1
    62    79    41    1
    63    68    25    1
    64    25    29    1
    65    28    29   ar
    66    28    33   ar
    67    41    40   ar
    68    41    36   ar
    69    40    39   ar
    70    29    30   ar
    71     3    33    1
    72     3    35    1
    73    33    32   ar
    74    30    36    1
    75    30    31   ar
    76    74    35    1
    77    36    37   ar
    78    39    78    1
    79    39    38   ar
    80    76    35    1
    81    35    75    1
    82    32    31   ar
    83    32    70    1
    84    31    69    1
    85    37    38   ar
    86    37    77    1
    87    38    42    1
    88    42    82    1
    89    42    80    1
    90    42    81    1
