@<TRIPOS>MOLECULE
3,4,5,6,7,63,64,65,66,67
 121 126 0 0 0
SMALL
GASTEIGER

@<TRIPOS>ATOM
      1 SI          8.5088   12.8952    5.1413 Si      1  UNL1        0.0000
      2 O           5.2279   12.5223    5.0036 O.3     1  UNL1        0.0000
      3 C           7.8504    9.5496    7.4459 C.3     1  UNL1        0.0000
      4 C           8.5893   10.6883    7.0538 C.3     1  UNL1        0.0000
      5 C           7.7632   11.5210    6.2302 C.3     1  UNL1        0.0000
      6 C           6.4629   10.9057    6.2087 C.ar    1  UNL1        0.0000
      7 C           6.5126    9.6941    6.9756 C.ar    1  UNL1        0.0000
      8 C           5.3616    8.9068    7.1824 C.ar    1  UNL1        0.0000
      9 C           4.1758    9.3722    6.6493 C.ar    1  UNL1        0.0000
     10 C           4.1016   10.5627    5.9197 C.ar    1  UNL1        0.0000
     11 C           5.2224   11.3357    5.6903 C.ar    1  UNL1        0.0000
     12 C           9.9521   10.9909    7.6065 C.3     1  UNL1        0.0000
     13 C           4.0054   13.0254    4.5259 C.3     1  UNL1        0.0000
     14 C           5.4303    7.6539    7.9470 C.ar    1  UNL1        0.0000
     15 C           6.4605    6.7536    7.7158 C.ar    1  UNL1        0.0000
     16 C           6.5554    5.5737    8.4437 C.ar    1  UNL1        0.0000
     17 C           5.5847    5.3160    9.3998 C.ar    1  UNL1        0.0000
     18 C           4.5258    6.1899    9.6404 C.ar    1  UNL1        0.0000
     19 C           4.4630    7.3614    8.9055 C.ar    1  UNL1        0.0000
     20 C           7.7040    4.6220    8.1493 C.3     1  UNL1        0.0000
     21 C           7.5671    4.1278    6.7038 C.3     1  UNL1        0.0000
     22 C           9.0354    5.3682    8.3160 C.3     1  UNL1        0.0000
     23 C           7.7213    3.4040    9.0772 C.3     1  UNL1        0.0000
     24 C           3.4920    5.8231   10.6959 C.3     1  UNL1        0.0000
     25 C           2.3865    6.8742   10.8292 C.3     1  UNL1        0.0000
     26 C           2.8353    4.4898   10.3114 C.3     1  UNL1        0.0000
     27 C           4.1877    5.6870   12.0574 C.3     1  UNL1        0.0000
     28 C           7.4877   14.1193    4.0885 C.3     1  UNL1        0.0000
     29 H           8.1801    8.8219    8.1771 H       1  UNL1        0.0000
     30 H           3.2722    8.7970    6.7854 H       1  UNL1        0.0000
     31 H           3.1390   10.8669    5.5406 H       1  UNL1        0.0000
     32 H          10.5835   11.5029    6.8856 H       1  UNL1        0.0000
     33 H          10.4435   10.0651    7.9134 H       1  UNL1        0.0000
     34 H           9.8522   11.6286    8.4885 H       1  UNL1        0.0000
     35 H           4.2449   13.9700    4.0399 H       1  UNL1        0.0000
     36 H           3.2998   13.2070    5.3425 H       1  UNL1        0.0000
     37 H           3.5490   12.3487    3.7957 H       1  UNL1        0.0000
     38 H           7.1774    6.9731    6.9361 H       1  UNL1        0.0000
     39 H           5.6418    4.4090    9.9771 H       1  UNL1        0.0000
     40 H           3.6793    8.0823    9.0706 H       1  UNL1        0.0000
     41 H           6.6281    3.5924    6.5758 H       1  UNL1        0.0000
     42 H           8.3874    3.4566    6.4588 H       1  UNL1        0.0000
     43 H           7.5827    4.9595    6.0051 H       1  UNL1        0.0000
     44 H           9.8679    4.6828    8.1714 H       1  UNL1        0.0000
     45 H           9.1080    5.7910    9.3167 H       1  UNL1        0.0000
     46 H           9.1371    6.1721    7.5918 H       1  UNL1        0.0000
     47 H           6.8169    2.8101    8.9642 H       1  UNL1        0.0000
     48 H           7.8235    3.7062   10.1174 H       1  UNL1        0.0000
     49 H           8.5697    2.7701    8.8264 H       1  UNL1        0.0000
     50 H           2.7946    7.8357   11.1323 H       1  UNL1        0.0000
     51 H           1.6739    6.5571   11.5883 H       1  UNL1        0.0000
     52 H           1.8478    6.9947    9.8921 H       1  UNL1        0.0000
     53 H           2.3624    4.5730    9.3350 H       1  UNL1        0.0000
     54 H           2.0751    4.2205   11.0422 H       1  UNL1        0.0000
     55 H           3.5644    3.6856   10.2680 H       1  UNL1        0.0000
     56 H           4.9407    4.9040   12.0413 H       1  UNL1        0.0000
     57 H           3.4598    5.4435   12.8290 H       1  UNL1        0.0000
     58 H           4.6749    6.6226   12.3244 H       1  UNL1        0.0000
     59 H           8.1650   14.8426    3.6438 H       1  UNL1        0.0000
     60 H           6.7992   14.6637    4.7243 H       1  UNL1        0.0000
     61 H           6.9154   13.6683    3.2901 H       1  UNL1        0.0000
     62 O          11.7898   12.5213    5.2804 O.3     1  UNL1        0.0000
     63 C           9.1673    9.5487    2.8380 C.3     1  UNL1        0.0000
     64 C           8.4283   10.6873    3.2299 C.3     1  UNL1        0.0000
     65 C           9.2543   11.5201    4.0537 C.3     1  UNL1        0.0000
     66 C          10.5547   10.9049    4.0750 C.ar    1  UNL1        0.0000
     67 C          10.5049    9.6930    3.3085 C.ar    1  UNL1        0.0000
     68 C          11.6559    8.9058    3.1016 C.ar    1  UNL1        0.0000
     69 C          12.8419    9.3714    3.6340 C.ar    1  UNL1        0.0000
     70 C          12.9161   10.5619    4.3637 C.ar    1  UNL1        0.0000
     71 C          11.7951   11.3347    4.5935 C.ar    1  UNL1        0.0000
     72 C           7.0653   10.9894    2.6775 C.3     1  UNL1        0.0000
     73 C          13.0125   13.0243    5.7577 C.3     1  UNL1        0.0000
     74 C          11.5872    7.6531    2.3365 C.ar    1  UNL1        0.0000
     75 C          10.5574    6.7524    2.5682 C.ar    1  UNL1        0.0000
     76 C          10.4625    5.5727    1.8400 C.ar    1  UNL1        0.0000
     77 C          11.4326    5.3158    0.8830 C.ar    1  UNL1        0.0000
     78 C          12.4910    6.1901    0.6419 C.ar    1  UNL1        0.0000
     79 C          12.5538    7.3613    1.3771 C.ar    1  UNL1        0.0000
     80 C           9.3141    4.6208    2.1345 C.3     1  UNL1        0.0000
     81 C           9.4513    4.1266    3.5800 C.3     1  UNL1        0.0000
     82 C           7.9825    5.3667    1.9683 C.3     1  UNL1        0.0000
     83 C           9.2971    3.4027    1.2065 C.3     1  UNL1        0.0000
     84 C          13.5243    5.8238   -0.4141 C.3     1  UNL1        0.0000
     85 C          14.6294    6.8754   -0.5477 C.3     1  UNL1        0.0000
     86 C          14.1817    4.4906   -0.0302 C.3     1  UNL1        0.0000
     87 C          12.8281    5.6876   -1.7753 C.3     1  UNL1        0.0000
     88 C           9.5306   14.1197    6.1929 C.3     1  UNL1        0.0000
     89 H           8.8375    8.8205    2.1073 H       1  UNL1        0.0000
     90 H          13.7454    8.7964    3.4976 H       1  UNL1        0.0000
     91 H          13.8788   10.8662    4.7426 H       1  UNL1        0.0000
     92 H           6.4340   11.5016    3.3982 H       1  UNL1        0.0000
     93 H           6.5739   10.0633    2.3712 H       1  UNL1        0.0000
     94 H           7.1652   11.6266    1.7951 H       1  UNL1        0.0000
     95 H          12.7731   13.9688    6.2441 H       1  UNL1        0.0000
     96 H          13.7178   13.2061    4.9409 H       1  UNL1        0.0000
     97 H          13.4692   12.3474    6.4876 H       1  UNL1        0.0000
     98 H           9.8410    6.9715    3.3483 H       1  UNL1        0.0000
     99 H          11.3753    4.4089    0.3053 H       1  UNL1        0.0000
    100 H          13.3373    8.0825    1.2119 H       1  UNL1        0.0000
    101 H          10.3906    3.5917    3.7077 H       1  UNL1        0.0000
    102 H           8.6314    3.4550    3.8249 H       1  UNL1        0.0000
    103 H           9.4354    4.9582    4.2788 H       1  UNL1        0.0000
    104 H           7.1501    4.6812    2.1130 H       1  UNL1        0.0000
    105 H           7.9098    5.7895    0.9676 H       1  UNL1        0.0000
    106 H           7.8808    6.1707    2.6926 H       1  UNL1        0.0000
    107 H          10.2017    2.8093    1.3191 H       1  UNL1        0.0000
    108 H           9.1942    3.7049    0.1664 H       1  UNL1        0.0000
    109 H           8.4490    2.7685    1.4576 H       1  UNL1        0.0000
    110 H          14.2208    7.8368   -0.8504 H       1  UNL1        0.0000
    111 H          15.3417    6.5587   -1.3073 H       1  UNL1        0.0000
    112 H          15.1685    6.9959    0.3891 H       1  UNL1        0.0000
    113 H          14.6550    4.5739    0.9459 H       1  UNL1        0.0000
    114 H          14.9415    4.2216   -0.7614 H       1  UNL1        0.0000
    115 H          13.4529    3.6862    0.0136 H       1  UNL1        0.0000
    116 H          12.0753    4.9044   -1.7590 H       1  UNL1        0.0000
    117 H          13.5556    5.4446   -2.5472 H       1  UNL1        0.0000
    118 H          12.3404    6.6231   -2.0419 H       1  UNL1        0.0000
    119 H           8.8537   14.8443    6.6362 H       1  UNL1        0.0000
    120 H          10.2199   14.6626    5.5567 H       1  UNL1        0.0000
    121 H          10.1021   13.6696    6.9923 H       1  UNL1        0.0000
@<TRIPOS>BOND
     1   117    87    1
     2   118    87    1
     3    87   116    1
     4    87    84    1
     5   111    85    1
     6   110    85    1
     7   114    86    1
     8    85    84    1
     9    85   112    1
    10    84    86    1
    11    84    78    1
    12    86   115    1
    13    86   113    1
    14   108    83    1
    15    99    77    1
    16    78    77   ar
    17    78    79   ar
    18    77    76   ar
    19   105    82    1
    20    83   107    1
    21    83   109    1
    22    83    80    1
    23   100    79    1
    24    79    74   ar
    25    94    72    1
    26    76    80    1
    27    76    75   ar
    28    82   104    1
    29    82    80    1
    30    82   106    1
    31    89    63    1
    32    80    81    1
    33    74    75   ar
    34    74    68    1
    35    93    72    1
    36    75    98    1
    37    72    64    1
    38    72    92    1
    39    63    64    1
    40    63    67    1
    41    68    67   ar
    42    68    69   ar
    43    64    65    1
    44    61    28    1
    45    67    66   ar
    46    90    69    1
    47    81   101    1
    48    81   102    1
    49    81   103    1
    50    69    70   ar
    51    59    28    1
    52    37    13    1
    53    35    13    1
    54    65    66    1
    55    65     1    1
    56    66    71   ar
    57    28    60    1
    58    28     1    1
    59    70    71   ar
    60    70    91    1
    61    13     2    1
    62    13    36    1
    63    71    62    1
    64    96    73    1
    65     2    11    1
    66     1    88    1
    67     1     5    1
    68    62    73    1
    69    31    10    1
    70   120    88    1
    71    11    10   ar
    72    11     6   ar
    73    73    95    1
    74    73    97    1
    75    10     9   ar
    76    43    21    1
    77    88   119    1
    78    88   121    1
    79     6     5    1
    80     6     7   ar
    81     5     4    1
    82    42    21    1
    83    41    21    1
    84     9    30    1
    85     9     8   ar
    86    21    20    1
    87    32    12    1
    88    38    15    1
    89     7     8   ar
    90     7     3    1
    91     4     3    1
    92     4    12    1
    93     8    14    1
    94     3    29    1
    95    46    22    1
    96    12    33    1
    97    12    34    1
    98    15    14   ar
    99    15    16   ar
   100    14    19   ar
   101    20    22    1
   102    20    16    1
   103    20    23    1
   104    44    22    1
   105    22    45    1
   106    16    17   ar
   107    49    23    1
   108    19    40    1
   109    19    18   ar
   110    47    23    1
   111    23    48    1
   112    53    26    1
   113    17    18   ar
   114    17    39    1
   115    18    24    1
   116    52    25    1
   117    55    26    1
   118    26    24    1
   119    26    54    1
   120    24    25    1
   121    24    27    1
   122    25    50    1
   123    25    51    1
   124    56    27    1
   125    27    58    1
   126    27    57    1
