@<TRIPOS>MOLECULE
3,12,13,14,30,31,32,33,34
 57 62 0 0 0
SMALL
GASTEIGER

@<TRIPOS>ATOM
      1 SI         -0.1580    7.2779    3.8820 Si      1  UNL1        0.0000
      2 C           0.6136    5.9707    5.0274 C.3     1  UNL1        0.0000
      3 C          -0.1470    5.2016    5.9828 C.ar    1  UNL1        0.0000
      4 C          -1.3589    5.4624    6.6766 C.ar    1  UNL1        0.0000
      5 C          -1.8210    4.5684    7.5932 C.ar    1  UNL1        0.0000
      6 C          -1.1367    3.3532    7.8899 C.ar    1  UNL1        0.0000
      7 C          -1.6513    2.4340    8.8173 C.ar    1  UNL1        0.0000
      8 C          -0.9902    1.2628    9.0893 C.ar    1  UNL1        0.0000
      9 C           0.2111    0.9670    8.4415 C.ar    1  UNL1        0.0000
     10 C           0.7445    1.8490    7.5344 C.ar    1  UNL1        0.0000
     11 C           0.0894    3.0550    7.2431 C.ar    1  UNL1        0.0000
     12 C           0.5888    4.0034    6.2947 C.ar    1  UNL1        0.0000
     13 C           1.7833    4.0295    5.5313 C.2     1  UNL1        0.0000
     14 C           1.7932    5.2092    4.7594 C.2     1  UNL1        0.0000
     15 C           2.9472    5.5733    3.8686 C.3     1  UNL1        0.0000
     16 C           1.0509    8.4996    3.0424 C.3     1  UNL1        0.0000
     17 H          -1.8835    6.3927    6.5164 H       1  UNL1        0.0000
     18 H          -2.7376    4.7699    8.1294 H       1  UNL1        0.0000
     19 H          -2.5872    2.6592    9.3086 H       1  UNL1        0.0000
     20 H          -1.4008    0.5599    9.7992 H       1  UNL1        0.0000
     21 H           0.7161    0.0358    8.6521 H       1  UNL1        0.0000
     22 H           1.6658    1.6118    7.0215 H       1  UNL1        0.0000
     23 H           2.6024    3.3239    5.5905 H       1  UNL1        0.0000
     24 H           3.8855    5.3258    4.3657 H       1  UNL1        0.0000
     25 H           2.9088    5.0012    2.9356 H       1  UNL1        0.0000
     26 H           2.9529    6.6356    3.6432 H       1  UNL1        0.0000
     27 H           0.4914    9.1660    2.3940 H       1  UNL1        0.0000
     28 H           1.5342    9.1124    3.7968 H       1  UNL1        0.0000
     29 H           1.8288    8.0466    2.4421 H       1  UNL1        0.0000
     30 C          -0.9294    5.9702    2.7371 C.3     1  UNL1        0.0000
     31 C          -0.1688    5.2012    1.7814 C.ar    1  UNL1        0.0000
     32 C          -0.9045    4.0028    1.4697 C.ar    1  UNL1        0.0000
     33 C          -2.0989    4.0288    2.2334 C.2     1  UNL1        0.0000
     34 C          -2.1088    5.2085    3.0054 C.2     1  UNL1        0.0000
     35 C          -1.3669    8.4998    4.7210 C.3     1  UNL1        0.0000
     36 C           1.0430    5.4620    1.0876 C.ar    1  UNL1        0.0000
     37 C          -0.4053    3.0546    0.5212 C.ar    1  UNL1        0.0000
     38 H          -2.9178    3.3230    2.1745 H       1  UNL1        0.0000
     39 C          -3.2626    5.5722    3.8964 C.3     1  UNL1        0.0000
     40 H          -0.8075    9.1666    5.3691 H       1  UNL1        0.0000
     41 H          -1.8502    9.1123    3.9664 H       1  UNL1        0.0000
     42 H          -2.1448    8.0471    5.3216 H       1  UNL1        0.0000
     43 C           1.5050    4.5681    0.1708 C.ar    1  UNL1        0.0000
     44 H           1.5676    6.3923    1.2477 H       1  UNL1        0.0000
     45 C           0.8206    3.3529   -0.1260 C.ar    1  UNL1        0.0000
     46 C          -1.0607    1.8487    0.2296 C.ar    1  UNL1        0.0000
     47 H          -4.2010    5.3254    3.3992 H       1  UNL1        0.0000
     48 H          -3.2244    4.9992    4.8290 H       1  UNL1        0.0000
     49 H          -3.2680    6.6342    4.1228 H       1  UNL1        0.0000
     50 H           2.4215    4.7696   -0.3654 H       1  UNL1        0.0000
     51 C           1.3348    2.4340   -1.0538 C.ar    1  UNL1        0.0000
     52 C          -0.5276    0.9670   -0.6780 C.ar    1  UNL1        0.0000
     53 H          -1.9818    1.6115    0.7428 H       1  UNL1        0.0000
     54 C           0.6735    1.2629   -1.3260 C.ar    1  UNL1        0.0000
     55 H           2.2706    2.6593   -1.5454 H       1  UNL1        0.0000
     56 H          -1.0327    0.0359   -0.8887 H       1  UNL1        0.0000
     57 H           1.0838    0.5603   -2.0364 H       1  UNL1        0.0000
@<TRIPOS>BOND
     1    57    54    1
     2    55    51    1
     3    54    51   ar
     4    54    52   ar
     5    51    45   ar
     6    56    52    1
     7    52    46   ar
     8    50    43    1
     9    45    43   ar
    10    45    37   ar
    11    43    36   ar
    12    46    37   ar
    13    46    53    1
    14    37    32   ar
    15    36    44    1
    16    36    31   ar
    17    32    31   ar
    18    32    33    1
    19    31    30    1
    20    38    33    1
    21    33    34    2
    22    27    16    1
    23    29    16    1
    24    30    34    1
    25    30     1    1
    26    25    15    1
    27    34    39    1
    28    16    28    1
    29    16     1    1
    30    47    39    1
    31    26    15    1
    32    15    24    1
    33    15    14    1
    34     1    35    1
    35     1     2    1
    36    39    49    1
    37    39    48    1
    38    41    35    1
    39    35    42    1
    40    35    40    1
    41    14     2    1
    42    14    13    2
    43     2     3    1
    44    13    23    1
    45    13    12    1
    46     3    12   ar
    47     3     4   ar
    48    12    11   ar
    49    17     4    1
    50     4     5   ar
    51    22    10    1
    52    11    10   ar
    53    11     6   ar
    54    10     9   ar
    55     5     6   ar
    56     5    18    1
    57     6     7   ar
    58     9    21    1
    59     9     8   ar
    60     7     8   ar
    61     7    19    1
    62     8    20    1
