@<TRIPOS>MOLECULE
2,3,4,8,9,27,28,30,35
 51 52 0 0 0
SMALL
GASTEIGER

@<TRIPOS>ATOM
      1 SI         -2.1685    6.0419    8.0648 Si      1  UNL1        0.0000
      2 C          -0.3945    2.8081    6.2368 C.2     1  UNL1        0.0000
      3 C          -1.5357    4.7410    6.8265 C.3     1  UNL1        0.0000
      4 C          -0.3256    3.9898    7.0143 C.2     1  UNL1        0.0000
      5 C           0.9301    4.4142    7.7234 C.3     1  UNL1        0.0000
      6 C           0.7177    1.8241    6.0188 C.3     1  UNL1        0.0000
      7 C          -3.4604    7.3048    7.4190 C.3     1  UNL1        0.0000
      8 C          -1.6547    2.7810    5.5880 C.2     1  UNL1        0.0000
      9 C          -2.3687    3.9472    5.9638 C.2     1  UNL1        0.0000
     10 C          -2.0844    1.7623    4.5724 C.3     1  UNL1        0.0000
     11 C          -3.6979    4.2991    5.3553 C.3     1  UNL1        0.0000
     12 H           1.7550    4.4644    7.0098 H       1  UNL1        0.0000
     13 H           1.2074    3.6911    8.4948 H       1  UNL1        0.0000
     14 H           0.8203    5.3947    8.1721 H       1  UNL1        0.0000
     15 H          -3.1679    1.7427    4.4690 H       1  UNL1        0.0000
     16 H          -3.9402    7.7924    8.2620 H       1  UNL1        0.0000
     17 H          -2.9448    8.0733    6.8522 H       1  UNL1        0.0000
     18 H          -1.6481    1.9940    3.5975 H       1  UNL1        0.0000
     19 H           1.2631    2.0675    5.1037 H       1  UNL1        0.0000
     20 H          -1.7522    0.7643    4.8620 H       1  UNL1        0.0000
     21 H          -4.2427    6.9135    6.7815 H       1  UNL1        0.0000
     22 H          -3.5936    4.4009    4.2728 H       1  UNL1        0.0000
     23 H           1.4187    1.8349    6.8513 H       1  UNL1        0.0000
     24 H          -4.0801    5.2369    5.7412 H       1  UNL1        0.0000
     25 H          -4.4297    3.5083    5.5430 H       1  UNL1        0.0000
     26 H           0.3252    0.8118    5.9181 H       1  UNL1        0.0000
     27 C          -3.9425    2.8080    9.8927 C.2     1  UNL1        0.0000
     28 C          -4.0113    3.9898    9.1153 C.3     1  UNL1        0.0000
     29 C          -2.8012    4.7410    9.3031 C.3     1  UNL1        0.0000
     30 C          -2.6822    2.7809   10.5414 C.2     1  UNL1        0.0000
     31 C          -5.0547    1.8241   10.1107 C.3     1  UNL1        0.0000
     32 H          -5.6002    2.0676   11.0258 H       1  UNL1        0.0000
     33 H          -5.7556    1.8349    9.2782 H       1  UNL1        0.0000
     34 H          -4.6623    0.8118   10.2116 H       1  UNL1        0.0000
     35 C          -1.9682    3.9471   10.1657 C.3     1  UNL1        0.0000
     36 C          -5.2670    4.4141    8.4062 C.3     1  UNL1        0.0000
     37 H          -6.0920    4.4644    9.1198 H       1  UNL1        0.0000
     38 H          -5.5443    3.6910    7.6348 H       1  UNL1        0.0000
     39 H          -5.1573    5.3946    7.9574 H       1  UNL1        0.0000
     40 C          -0.6390    4.2990   10.7743 C.3     1  UNL1        0.0000
     41 H          -0.7433    4.4008   11.8567 H       1  UNL1        0.0000
     42 H          -0.2569    5.2368   10.3883 H       1  UNL1        0.0000
     43 H           0.0928    3.5082   10.5866 H       1  UNL1        0.0000
     44 C          -2.2526    1.7622   11.5571 C.3     1  UNL1        0.0000
     45 H          -1.1691    1.7425   11.6607 H       1  UNL1        0.0000
     46 H          -2.6890    1.9942   12.5320 H       1  UNL1        0.0000
     47 H          -2.5849    0.7642   11.2677 H       1  UNL1        0.0000
     48 C          -0.8767    7.3048    8.7107 C.3     1  UNL1        0.0000
     49 H          -0.3970    7.7925    7.8677 H       1  UNL1        0.0000
     50 H          -1.3923    8.0733    9.2776 H       1  UNL1        0.0000
     51 H          -0.0944    6.9134    9.3480 H       1  UNL1        0.0000
@<TRIPOS>BOND
     1    18    10    1
     2    22    11    1
     3    15    10    1
     4    10    20    1
     5    10     8    1
     6    19     6    1
     7    11    25    1
     8    11    24    1
     9    11     9    1
    10     8     9    2
    11     8     2    1
    12    26     6    1
    13     9     3    1
    14     6     2    1
    15     6    23    1
    16     2     4    2
    17    21     7    1
    18     3     4    1
    19     3     1    1
    20    17     7    1
    21    12     5    1
    22     4     5    1
    23     7     1    1
    24     7    16    1
    25    38    36    1
    26     5    14    1
    27     5    13    1
    28    49    48    1
    29    39    36    1
    30     1    48    1
    31     1    29    1
    32    36    28    1
    33    36    37    1
    34    48    50    1
    35    48    51    1
    36    28    29    1
    37    28    27    1
    38    33    31    1
    39    29    35    1
    40    27    31    1
    41    27    30    2
    42    31    34    1
    43    31    32    1
    44    35    30    1
    45    35    40    1
    46    42    40    1
    47    30    44    1
    48    43    40    1
    49    40    41    1
    50    47    44    1
    51    44    45    1
    52    44    46    1
