@<TRIPOS>MOLECULE
2,4,5,6,7,8,9,10,11
 34 36 0 0 0
SMALL
GASTEIGER

@<TRIPOS>ATOM
      1 SI          2.8448    3.6996    2.8116 Si      1  UNL1        0.0000
      2 C           1.1102    4.4261    3.0547 C.3     1  UNL1        0.0000
      3 C           0.1594    3.8460    3.9633 C.3     1  UNL1        0.0000
      4 C          -1.1330    4.1952    3.5150 C.2     1  UNL1        0.0000
      5 C          -1.0004    4.9614    2.3356 C.2     1  UNL1        0.0000
      6 C           0.3702    5.1005    2.0594 C.3     1  UNL1        0.0000
      7 C           2.0074    2.0002    2.9019 C.3     1  UNL1        0.0000
      8 C           0.9444    1.7199    3.8276 C.3     1  UNL1        0.0000
      9 C           0.1677    0.6718    3.2877 C.3     1  UNL1        0.0000
     10 C           0.7173    0.3134    2.0364 C.2     1  UNL1        0.0000
     11 C           1.8404    1.1257    1.8062 C.2     1  UNL1        0.0000
     12 C           0.4918    2.6963    4.9036 C.3     1  UNL1        0.0000
     13 C           1.5526    3.0202    5.9555 C.3     1  UNL1        0.0000
     14 C          -0.7618    2.1880    5.6252 C.3     1  UNL1        0.0000
     15 C           4.2492    4.1485    4.0292 C.3     1  UNL1        0.0000
     16 C           3.4825    4.0425    1.0493 C.3     1  UNL1        0.0000
     17 H          -2.0713    4.0021    4.0167 H       1  UNL1        0.0000
     18 H          -1.8133    5.4217    1.7885 H       1  UNL1        0.0000
     19 H           0.7931    5.6817    1.2509 H       1  UNL1        0.0000
     20 H          -0.6517    0.1537    3.7669 H       1  UNL1        0.0000
     21 H           0.3746   -0.4976    1.4064 H       1  UNL1        0.0000
     22 H           2.5063    1.0524    0.9569 H       1  UNL1        0.0000
     23 H           1.7676    2.1307    6.5450 H       1  UNL1        0.0000
     24 H           1.1835    3.7976    6.6219 H       1  UNL1        0.0000
     25 H           2.4732    3.3626    5.5016 H       1  UNL1        0.0000
     26 H          -1.5564    1.9420    4.9208 H       1  UNL1        0.0000
     27 H          -0.5197    1.2975    6.2023 H       1  UNL1        0.0000
     28 H          -1.1271    2.9502    6.3110 H       1  UNL1        0.0000
     29 H           3.9632    4.9311    4.7237 H       1  UNL1        0.0000
     30 H           4.5908    3.2931    4.6021 H       1  UNL1        0.0000
     31 H           5.0967    4.5152    3.4608 H       1  UNL1        0.0000
     32 H           3.7559    5.0873    0.9361 H       1  UNL1        0.0000
     33 H           2.7351    3.8053    0.2963 H       1  UNL1        0.0000
     34 H           4.3707    3.4535    0.8411 H       1  UNL1        0.0000
@<TRIPOS>BOND
     1    33    16    1
     2    34    16    1
     3    32    16    1
     4    22    11    1
     5    16     1    1
     6    19     6    1
     7    21    10    1
     8    18     5    1
     9    11    10    2
    10    11     7    1
    11    10     9    1
    12     6     5    1
    13     6     2    1
    14     5     4    2
    15     1     7    1
    16     1     2    1
    17     1    15    1
    18     7     8    1
    19     2     3    1
    20     9    20    1
    21     9     8    1
    22    31    15    1
    23     4     3    1
    24     4    17    1
    25     8    12    1
    26     3    12    1
    27    15    30    1
    28    15    29    1
    29    12    14    1
    30    12    13    1
    31    26    14    1
    32    25    13    1
    33    14    27    1
    34    14    28    1
    35    13    23    1
    36    13    24    1
