@<TRIPOS>MOLECULE
2,3,4,5,6,7,8,9,10,11
 34 36 0 0 0
SMALL
GASTEIGER

@<TRIPOS>ATOM
      1 SI          2.7132    6.7402    9.2537 Si      1  UNL1        0.0000
      2 C           3.0461    5.0450    8.4730 C.3     1  UNL1        0.0000
      3 C           1.9745    4.1554    8.1322 C.3     1  UNL1        0.0000
      4 C           2.4853    2.8337    8.1526 C.3     1  UNL1        0.0000
      5 C           3.8522    2.8926    8.5191 C.2     1  UNL1        0.0000
      6 C           4.1908    4.2434    8.7253 C.2     1  UNL1        0.0000
      7 C           1.3026    5.9881   10.2733 C.3     1  UNL1        0.0000
      8 C           0.4332    4.9888    9.7243 C.3     1  UNL1        0.0000
      9 C          -0.0771    4.2198   10.7996 C.3     1  UNL1        0.0000
     10 C           0.4787    4.7180   12.0034 C.2     1  UNL1        0.0000
     11 C           1.3300    5.7914   11.6794 C.2     1  UNL1        0.0000
     12 C           0.4972    4.5386    8.2618 C.3     1  UNL1        0.0000
     13 C           2.3561    8.2393    8.1206 C.3     1  UNL1        0.0000
     14 C           4.1566    7.1721   10.4247 C.3     1  UNL1        0.0000
     15 C           0.0661    5.6281    7.2757 C.3     1  UNL1        0.0000
     16 C          -0.3896    3.3038    8.0489 C.3     1  UNL1        0.0000
     17 H           1.9759    1.9301    7.8401 H       1  UNL1        0.0000
     18 H           4.5391    2.0541    8.5226 H       1  UNL1        0.0000
     19 H           5.1856    4.6187    8.9344 H       1  UNL1        0.0000
     20 H          -0.8425    3.4545   10.7517 H       1  UNL1        0.0000
     21 H           0.2017    4.4014   13.0024 H       1  UNL1        0.0000
     22 H           1.8362    6.4314   12.3924 H       1  UNL1        0.0000
     23 H          -0.9798    5.8800    7.4378 H       1  UNL1        0.0000
     24 H           0.1848    5.2710    6.2550 H       1  UNL1        0.0000
     25 H           0.6595    6.5253    7.3991 H       1  UNL1        0.0000
     26 H          -0.1161    2.4981    8.7349 H       1  UNL1        0.0000
     27 H          -1.4336    3.5647    8.2117 H       1  UNL1        0.0000
     28 H          -0.2862    2.9453    7.0265 H       1  UNL1        0.0000
     29 H           2.4727    7.9974    7.0695 H       1  UNL1        0.0000
     30 H           3.0570    9.0343    8.3500 H       1  UNL1        0.0000
     31 H           1.3568    8.6349    8.2685 H       1  UNL1        0.0000
     32 H           4.3915    6.3477   11.0967 H       1  UNL1        0.0000
     33 H           3.9185    8.0418   11.0291 H       1  UNL1        0.0000
     34 H           5.0530    7.4129    9.8618 H       1  UNL1        0.0000
@<TRIPOS>BOND
     1    24    15    1
     2    28    16    1
     3    29    13    1
     4    15    25    1
     5    15    23    1
     6    15    12    1
     7    17     4    1
     8    16    27    1
     9    16    12    1
    10    16    26    1
    11    13    31    1
    12    13    30    1
    13    13     1    1
    14     3     4    1
    15     3    12    1
    16     3     2    1
    17     4     5    1
    18    12     8    1
    19     2     6    1
    20     2     1    1
    21     5    18    1
    22     5     6    2
    23     6    19    1
    24     1     7    1
    25     1    14    1
    26     8     7    1
    27     8     9    1
    28    34    14    1
    29     7    11    1
    30    14    33    1
    31    14    32    1
    32    20     9    1
    33     9    10    1
    34    11    10    2
    35    11    22    1
    36    10    21    1
