@<TRIPOS>MOLECULE
5,7,9,10,12,13,15,17,19
 49 50 0 0 0
SMALL
GASTEIGER

@<TRIPOS>ATOM
      1 SI          4.9694    0.7411    6.9165 Si      1  UNL1        0.0000
      2 SI          4.9196   -2.2820    6.2357 Si      1  UNL1        0.0000
      3 O           5.4246   -0.8351    6.8252 O.3     1  UNL1        0.0000
      4 C           4.4142    1.3691    5.2277 C.3     1  UNL1        0.0000
      5 C           3.2654    2.2020    5.0375 C.2     1  UNL1        0.0000
      6 H           2.4632    2.3250    5.7524 H       1  UNL1        0.0000
      7 C           3.3858    2.8949    3.8385 C.2     1  UNL1        0.0000
      8 H           2.6611    3.5929    3.4528 H       1  UNL1        0.0000
      9 C           4.5967    2.5277    3.2173 C.2     1  UNL1        0.0000
     10 C           5.2309    1.5863    4.0578 C.2     1  UNL1        0.0000
     11 H           6.2766    1.3114    3.9886 H       1  UNL1        0.0000
     12 C           4.5769   -1.9527    4.4152 C.3     1  UNL1        0.0000
     13 C           3.4708   -2.3700    3.6280 C.2     1  UNL1        0.0000
     14 H           2.6391   -2.9641    3.9848 H       1  UNL1        0.0000
     15 C           3.6907   -1.9872    2.2951 C.2     1  UNL1        0.0000
     16 H           3.0492   -2.2122    1.4530 H       1  UNL1        0.0000
     17 C           4.9304   -1.3207    2.2307 C.2     1  UNL1        0.0000
     18 H           5.4208   -0.9999    1.3222 H       1  UNL1        0.0000
     19 C           5.4833   -1.3097    3.5272 C.2     1  UNL1        0.0000
     20 H           6.4980   -1.0321    3.7834 H       1  UNL1        0.0000
     21 C           5.1708    3.0943    1.9409 C.3     1  UNL1        0.0000
     22 C           5.6282    1.9521    1.0251 C.3     1  UNL1        0.0000
     23 H           6.4036    1.3553    1.5027 H       1  UNL1        0.0000
     24 H           6.0307    2.3542    0.0973 H       1  UNL1        0.0000
     25 H           4.7757    1.3151    0.7873 H       1  UNL1        0.0000
     26 C           4.1273    3.9291    1.1945 C.3     1  UNL1        0.0000
     27 H           3.8338    4.7969    1.7797 H       1  UNL1        0.0000
     28 H           3.2456    3.3274    0.9859 H       1  UNL1        0.0000
     29 H           4.5378    4.2800    0.2498 H       1  UNL1        0.0000
     30 C           6.3728    3.9822    2.3002 C.3     1  UNL1        0.0000
     31 H           6.0644    4.7796    2.9723 H       1  UNL1        0.0000
     32 H           6.7914    4.4288    1.4009 H       1  UNL1        0.0000
     33 H           7.1499    3.4022    2.7924 H       1  UNL1        0.0000
     34 C           3.5334    0.8940    8.1543 C.3     1  UNL1        0.0000
     35 H           3.7651    0.3735    9.0782 H       1  UNL1        0.0000
     36 H           2.6247    0.4579    7.7474 H       1  UNL1        0.0000
     37 H           3.3259    1.9295    8.4027 H       1  UNL1        0.0000
     38 C           6.5473    1.6542    7.4697 C.3     1  UNL1        0.0000
     39 H           6.8644    1.3067    8.4466 H       1  UNL1        0.0000
     40 H           6.3762    2.7230    7.5357 H       1  UNL1        0.0000
     41 H           7.3709    1.4915    6.7817 H       1  UNL1        0.0000
     42 C           3.3690   -2.8934    7.1467 C.3     1  UNL1        0.0000
     43 H           3.5120   -2.8469    8.2218 H       1  UNL1        0.0000
     44 H           3.1365   -3.9220    6.8907 H       1  UNL1        0.0000
     45 H           2.5044   -2.2836    6.8992 H       1  UNL1        0.0000
     46 C           6.4145   -3.4422    6.4392 C.3     1  UNL1        0.0000
     47 H           6.6592   -3.5649    7.4884 H       1  UNL1        0.0000
     48 H           7.2969   -3.0564    5.9391 H       1  UNL1        0.0000
     49 H           6.2038   -4.4243    6.0306 H       1  UNL1        0.0000
@<TRIPOS>BOND
     1    24    22    1
     2    29    26    1
     3    25    22    1
     4    28    26    1
     5    22    23    1
     6    22    21    1
     7    26    27    1
     8    26    21    1
     9    18    17    1
    10    32    30    1
    11    16    15    1
    12    21    30    1
    13    21     9    1
    14    17    15    1
    15    17    19    2
    16    15    13    2
    17    30    33    1
    18    30    31    1
    19     9     7    1
    20     9    10    2
    21     8     7    1
    22    19    20    1
    23    19    12    1
    24    13    14    1
    25    13    12    1
    26     7     5    2
    27    11    10    1
    28    10     4    1
    29    12     2    1
    30     5     4    1
    31     5     6    1
    32     4     1    1
    33    48    46    1
    34    49    46    1
    35     2    46    1
    36     2     3    1
    37     2    42    1
    38    46    47    1
    39    41    38    1
    40     3     1    1
    41    44    42    1
    42    45    42    1
    43     1    38    1
    44     1    34    1
    45    42    43    1
    46    38    40    1
    47    38    39    1
    48    36    34    1
    49    34    37    1
    50    34    35    1
