@<TRIPOS>MOLECULE
2,3,4,6,7,28,29,30,31
 51 52 0 0 0
SMALL
GASTEIGER

@<TRIPOS>ATOM
      1 SI          4.3642   11.1934   14.1652 Si      1  UNL1        0.0000
      2 C           3.5723   11.1934   12.4369 C.3     1  UNL1        0.0000
      3 C           2.9744   10.0347   11.8266 C.2     1  UNL1        0.0000
      4 C           2.0999   10.4841   10.8026 C.2     1  UNL1        0.0000
      5 C           2.6020   11.1934   14.8794 C.3     1  UNL1        0.0000
      6 C           1.7472   10.0348   14.9130 C.3     1  UNL1        0.0000
      7 C           0.4087   10.4843   15.0621 C.2     1  UNL1        0.0000
      8 C           3.4341    8.6136   11.9167 C.3     1  UNL1        0.0000
      9 C           1.5540    9.6118    9.7140 C.3     1  UNL1        0.0000
     10 C           2.1387    8.6127   15.1617 C.3     1  UNL1        0.0000
     11 C          -0.7347    9.6123   15.4815 C.3     1  UNL1        0.0000
     12 C           5.5332    9.7467   14.6161 C.3     1  UNL1        0.0000
     13 H           2.6000    7.9447   12.1244 H       1  UNL1        0.0000
     14 H           4.1812    8.4878   12.6911 H       1  UNL1        0.0000
     15 H           3.8763    8.3049   10.9670 H       1  UNL1        0.0000
     16 H           2.3311    9.4524    8.9619 H       1  UNL1        0.0000
     17 H           0.6981   10.0710    9.2237 H       1  UNL1        0.0000
     18 H           1.2524    8.6417   10.1011 H       1  UNL1        0.0000
     19 H           1.9099    8.3388   16.1941 H       1  UNL1        0.0000
     20 H           3.1976    8.4553   14.9990 H       1  UNL1        0.0000
     21 H           1.5833    7.9388   14.5110 H       1  UNL1        0.0000
     22 H          -0.6748    9.4409   16.5592 H       1  UNL1        0.0000
     23 H          -0.6986    8.6468   14.9829 H       1  UNL1        0.0000
     24 H          -1.6942   10.0775   15.2651 H       1  UNL1        0.0000
     25 H           5.1275    8.7493   14.5088 H       1  UNL1        0.0000
     26 H           5.8495    9.8561   15.6485 H       1  UNL1        0.0000
     27 H           6.4227    9.8034   13.9963 H       1  UNL1        0.0000
     28 C           2.9744   12.3520   11.8266 C.2     1  UNL1        0.0000
     29 C           2.1000   11.9027   10.8025 C.2     1  UNL1        0.0000
     30 C           1.7472   12.3520   14.9130 C.3     1  UNL1        0.0000
     31 C           0.4087   11.9025   15.0621 C.2     1  UNL1        0.0000
     32 C           2.1387   13.7741   15.1617 C.3     1  UNL1        0.0000
     33 H           1.9099   14.0480   16.1941 H       1  UNL1        0.0000
     34 H           3.1977   13.9315   14.9989 H       1  UNL1        0.0000
     35 H           1.5833   14.4480   14.5110 H       1  UNL1        0.0000
     36 C          -0.7347   12.7745   15.4814 C.3     1  UNL1        0.0000
     37 H          -0.6748   12.9459   16.5592 H       1  UNL1        0.0000
     38 H          -0.6986   13.7401   14.9829 H       1  UNL1        0.0000
     39 H          -1.6942   12.3093   15.2651 H       1  UNL1        0.0000
     40 C           3.4341   13.7732   11.9167 C.3     1  UNL1        0.0000
     41 H           2.6000   14.4421   12.1245 H       1  UNL1        0.0000
     42 H           4.1812   13.8989   12.6911 H       1  UNL1        0.0000
     43 H           3.8763   14.0819   10.9671 H       1  UNL1        0.0000
     44 C           1.5540   12.7750    9.7140 C.3     1  UNL1        0.0000
     45 H           2.3311   12.9344    8.9619 H       1  UNL1        0.0000
     46 H           0.6981   12.3158    9.2237 H       1  UNL1        0.0000
     47 H           1.2523   13.7451   10.1012 H       1  UNL1        0.0000
     48 C           5.5333   12.6400   14.6161 C.3     1  UNL1        0.0000
     49 H           5.1276   13.6374   14.5089 H       1  UNL1        0.0000
     50 H           5.8496   12.5305   15.6485 H       1  UNL1        0.0000
     51 H           6.4227   12.5833   13.9963 H       1  UNL1        0.0000
@<TRIPOS>BOND
     1    16     9    1
     2    45    44    1
     3    17     9    1
     4    46    44    1
     5     9    18    1
     6     9     4    1
     7    44    47    1
     8    44    29    1
     9    29     4    1
    10    29    28    2
    11     4     3    2
    12    15     8    1
    13    43    40    1
    14    28    40    1
    15    28     2    1
    16     3     8    1
    17     3     2    1
    18     8    13    1
    19     8    14    1
    20    40    41    1
    21    40    42    1
    22     2     1    1
    23    51    48    1
    24    27    12    1
    25     1    12    1
    26     1    48    1
    27     1     5    1
    28    25    12    1
    29    49    48    1
    30    35    32    1
    31    21    10    1
    32    12    26    1
    33    48    50    1
    34     5     6    1
    35     5    30    1
    36     6     7    1
    37     6    10    1
    38    30    31    1
    39    30    32    1
    40    38    36    1
    41    23    11    1
    42    34    32    1
    43    20    10    1
    44     7    31    2
    45     7    11    1
    46    31    36    1
    47    32    33    1
    48    10    19    1
    49    39    36    1
    50    24    11    1
    51    36    37    1
    52    11    22    1
