@<TRIPOS>MOLECULE
4,5,6,7,8,9,10,11,12,13
 51 52 0 0 0
SMALL
GASTEIGER

@<TRIPOS>ATOM
      1 SI          1.4080    9.1590   10.8007 Si      1  UNL1        0.0000
      2 C           2.8143    8.0734   10.0937 C.3     1  UNL1        0.0000
      3 C           2.3729   10.1007   12.1510 C.3     1  UNL1        0.0000
      4 C           0.3529   10.1963    9.5915 C.3     1  UNL1        0.0000
      5 C          -0.4222   11.3349    9.9828 C.3     1  UNL1        0.0000
      6 C          -1.4751   11.4911    9.0093 C.3     1  UNL1        0.0000
      7 C          -1.2968   10.5041    7.9958 C.2     1  UNL1        0.0000
      8 C          -0.2268    9.6755    8.3737 C.2     1  UNL1        0.0000
      9 C          -0.2176    8.2982   11.3173 C.3     1  UNL1        0.0000
     10 C          -1.1717    8.8567   12.2267 C.3     1  UNL1        0.0000
     11 C          -2.4491    8.2557   11.9286 C.3     1  UNL1        0.0000
     12 C          -2.2575    7.2862   10.8997 C.2     1  UNL1        0.0000
     13 C          -0.9171    7.3466   10.4841 C.2     1  UNL1        0.0000
     14 C          -0.0874   12.3940   10.9799 C.3     1  UNL1        0.0000
     15 C          -2.3308   12.7103    8.8425 C.3     1  UNL1        0.0000
     16 C          -2.0698   10.4513    6.7203 C.3     1  UNL1        0.0000
     17 C           0.3857    8.6834    7.4359 C.3     1  UNL1        0.0000
     18 C          -0.9254    9.6456   13.4697 C.3     1  UNL1        0.0000
     19 C          -3.6591    8.3026   12.8121 C.3     1  UNL1        0.0000
     20 C          -3.2994    6.3215   10.4406 C.3     1  UNL1        0.0000
     21 C          -0.3036    6.3106    9.5954 C.3     1  UNL1        0.0000
     22 H           2.5825    7.4824    9.2170 H       1  UNL1        0.0000
     23 H           3.1553    7.3895   10.8647 H       1  UNL1        0.0000
     24 H           3.6524    8.7128    9.8359 H       1  UNL1        0.0000
     25 H           2.8356    9.3846   12.8232 H       1  UNL1        0.0000
     26 H           1.7900   10.7849   12.7534 H       1  UNL1        0.0000
     27 H           3.1722   10.6711   11.6876 H       1  UNL1        0.0000
     28 H           0.1005   13.3390   10.4685 H       1  UNL1        0.0000
     29 H           0.7922   12.1343   11.5565 H       1  UNL1        0.0000
     30 H          -0.9301   12.5392   11.6562 H       1  UNL1        0.0000
     31 H          -1.8179   13.4411    8.2123 H       1  UNL1        0.0000
     32 H          -2.5423   13.1649    9.8077 H       1  UNL1        0.0000
     33 H          -3.2791   12.4462    8.3747 H       1  UNL1        0.0000
     34 H          -3.1137   10.2054    6.9246 H       1  UNL1        0.0000
     35 H          -1.6674    9.7009    6.0453 H       1  UNL1        0.0000
     36 H          -2.0404   11.4247    6.2297 H       1  UNL1        0.0000
     37 H          -0.3538    7.9693    7.0781 H       1  UNL1        0.0000
     38 H           1.2040    8.1449    7.8963 H       1  UNL1        0.0000
     39 H           0.7813    9.2154    6.5680 H       1  UNL1        0.0000
     40 H          -1.5414   10.5451   13.4603 H       1  UNL1        0.0000
     41 H           0.1167    9.9274   13.5621 H       1  UNL1        0.0000
     42 H          -1.2034    9.0563   14.3445 H       1  UNL1        0.0000
     43 H          -4.5647    8.1646   12.2217 H       1  UNL1        0.0000
     44 H          -3.7261    9.2624   13.3194 H       1  UNL1        0.0000
     45 H          -3.6027    7.5096   13.5619 H       1  UNL1        0.0000
     46 H          -3.6999    5.7752   11.2955 H       1  UNL1        0.0000
     47 H          -2.8928    5.6128    9.7239 H       1  UNL1        0.0000
     48 H          -4.1224    6.8576    9.9640 H       1  UNL1        0.0000
     49 H          -0.4215    5.3307   10.0627 H       1  UNL1        0.0000
     50 H           0.7557    6.4836    9.4514 H       1  UNL1        0.0000
     51 H          -0.7959    6.2748    8.6254 H       1  UNL1        0.0000
@<TRIPOS>BOND
     1    35    16    1
     2    36    16    1
     3    39    17    1
     4    16    34    1
     5    16     7    1
     6    37    17    1
     7    17    38    1
     8    17     8    1
     9     7     8    2
    10     7     6    1
    11    31    15    1
    12     8     4    1
    13    33    15    1
    14    51    21    1
    15    15     6    1
    16    15    32    1
    17     6     5    1
    18    22     2    1
    19    50    21    1
    20     4     5    1
    21     4     1    1
    22    21    49    1
    23    21    13    1
    24    47    20    1
    25    24     2    1
    26    48    20    1
    27     5    14    1
    28     2     1    1
    29     2    23    1
    30    20    12    1
    31    20    46    1
    32    28    14    1
    33    13    12    2
    34    13     9    1
    35     1     9    1
    36     1     3    1
    37    12    11    1
    38    14    29    1
    39    14    30    1
    40     9    10    1
    41    27     3    1
    42    11    10    1
    43    11    19    1
    44     3    26    1
    45     3    25    1
    46    43    19    1
    47    10    18    1
    48    19    44    1
    49    19    45    1
    50    40    18    1
    51    18    41    1
    52    18    42    1
