@<TRIPOS>MOLECULE
2,3,4,5,6,7,8,9,10,11
 51 52 0 0 0
SMALL
GASTEIGER

@<TRIPOS>ATOM
      1 SI          2.6661    4.4517   13.9345 Si      1  UNL1        0.0000
      2 C           2.7865    6.0882   14.8963 C.3     1  UNL1        0.0000
      3 C           2.6761    6.2218   16.3244 C.2     1  UNL1        0.0000
      4 C           2.3599    7.5591   16.6299 C.2     1  UNL1        0.0000
      5 C           2.1811    8.2585   15.3972 C.3     1  UNL1        0.0000
      6 C           2.4428    7.3588   14.3223 C.3     1  UNL1        0.0000
      7 C           0.7875    4.5339   14.2195 C.3     1  UNL1        0.0000
      8 C           0.1653    4.2071   15.4728 C.2     1  UNL1        0.0000
      9 C          -1.1125    4.7901   15.5120 C.2     1  UNL1        0.0000
     10 C          -1.2823    5.5506   14.3125 C.3     1  UNL1        0.0000
     11 C          -0.1139    5.3960   13.5059 C.3     1  UNL1        0.0000
     12 C           3.1206    5.2558   17.3745 C.3     1  UNL1        0.0000
     13 C           2.5475    8.1999   17.9703 C.3     1  UNL1        0.0000
     14 C           2.0952    9.7493   15.2747 C.3     1  UNL1        0.0000
     15 C           2.6532    7.8169   12.9155 C.3     1  UNL1        0.0000
     16 C           0.6033    3.1727   16.4599 C.3     1  UNL1        0.0000
     17 C          -2.2056    4.3864   16.4523 C.3     1  UNL1        0.0000
     18 C          -2.6015    6.0811   13.8377 C.3     1  UNL1        0.0000
     19 C          -0.0670    5.7997   12.0686 C.3     1  UNL1        0.0000
     20 C           3.6158    2.9278   14.6019 C.3     1  UNL1        0.0000
     21 C           3.3147    4.4181   12.1349 C.3     1  UNL1        0.0000
     22 H           2.4095    5.2273   18.1989 H       1  UNL1        0.0000
     23 H           4.0837    5.5755   17.7792 H       1  UNL1        0.0000
     24 H           3.2356    4.2533   16.9831 H       1  UNL1        0.0000
     25 H           2.0206    9.1486   18.0347 H       1  UNL1        0.0000
     26 H           3.6128    8.3970   18.1207 H       1  UNL1        0.0000
     27 H           2.2146    7.5541   18.7801 H       1  UNL1        0.0000
     28 H           3.0775   10.1933   15.4539 H       1  UNL1        0.0000
     29 H           1.3915   10.1641   15.9984 H       1  UNL1        0.0000
     30 H           1.7610   10.0363   14.2798 H       1  UNL1        0.0000
     31 H           3.4739    8.5359   12.8762 H       1  UNL1        0.0000
     32 H           1.7594    8.3082   12.5346 H       1  UNL1        0.0000
     33 H           2.9008    6.9890   12.2624 H       1  UNL1        0.0000
     34 H          -0.1213    2.3556   16.4700 H       1  UNL1        0.0000
     35 H           0.6506    3.5815   17.4683 H       1  UNL1        0.0000
     36 H           1.5706    2.7588   16.2018 H       1  UNL1        0.0000
     37 H          -1.8265    4.2106   17.4568 H       1  UNL1        0.0000
     38 H          -2.6514    3.4530   16.0964 H       1  UNL1        0.0000
     39 H          -2.9925    5.1350   16.4964 H       1  UNL1        0.0000
     40 H          -3.2285    5.2563   13.4904 H       1  UNL1        0.0000
     41 H          -2.4668    6.7820   13.0163 H       1  UNL1        0.0000
     42 H          -3.1277    6.6012   14.6396 H       1  UNL1        0.0000
     43 H          -0.4056    6.8284   11.9567 H       1  UNL1        0.0000
     44 H          -0.7236    5.1604   11.4745 H       1  UNL1        0.0000
     45 H           0.9344    5.7256   11.6641 H       1  UNL1        0.0000
     46 H           3.6756    2.8310   15.6781 H       1  UNL1        0.0000
     47 H           4.6340    2.9653   14.2287 H       1  UNL1        0.0000
     48 H           3.1627    2.0205   14.2144 H       1  UNL1        0.0000
     49 H           4.3470    4.7539   12.1149 H       1  UNL1        0.0000
     50 H           2.7628    5.0122   11.4185 H       1  UNL1        0.0000
     51 H           3.3004    3.3932   11.7785 H       1  UNL1        0.0000
@<TRIPOS>BOND
     1    50    21    1
     2    44    19    1
     3    45    19    1
     4    51    21    1
     5    43    19    1
     6    19    11    1
     7    49    21    1
     8    21     1    1
     9    33    15    1
    10    32    15    1
    11    31    15    1
    12    15     6    1
    13    41    18    1
    14    40    18    1
    15    11     7    1
    16    11    10    1
    17    18    10    1
    18    18    42    1
    19     1     7    1
    20     1    20    1
    21     1     2    1
    22    48    20    1
    23     7     8    1
    24    47    20    1
    25    30    14    1
    26    10     9    1
    27     6     2    1
    28     6     5    1
    29    20    46    1
    30     2     3    1
    31    14     5    1
    32    14    28    1
    33    14    29    1
    34     5     4    1
    35     8     9    2
    36     8    16    1
    37     9    17    1
    38    38    17    1
    39    36    16    1
    40     3     4    2
    41     3    12    1
    42    17    39    1
    43    17    37    1
    44    16    34    1
    45    16    35    1
    46     4    13    1
    47    24    12    1
    48    12    23    1
    49    12    22    1
    50    13    25    1
    51    13    26    1
    52    13    27    1
