@<TRIPOS>MOLECULE
5,6,7,8,9,10,11,12,13
 51 52 0 0 0
SMALL
GASTEIGER

@<TRIPOS>ATOM
      1 SI          2.3789    3.5806    2.2647 Si      1  UNL1        0.0000
      2 C           1.0596    4.7222    3.0408 C.3     1  UNL1        0.0000
      3 C           3.2068    4.8081    1.0591 C.3     1  UNL1        0.0000
      4 C           3.4836    2.5483    3.4299 C.3     1  UNL1        0.0000
      5 C           4.7303    1.9203    3.0734 C.3     1  UNL1        0.0000
      6 C           5.0562    0.9949    4.1136 C.2     1  UNL1        0.0000
      7 C           4.0013    0.9789    5.0481 C.2     1  UNL1        0.0000
      8 C           2.9915    1.8821    4.6077 C.3     1  UNL1        0.0000
      9 C           1.8429    1.8737    1.5988 C.3     1  UNL1        0.0000
     10 C           2.6328    1.0936    0.6823 C.3     1  UNL1        0.0000
     11 C           2.0837   -0.2221    0.6495 C.2     1  UNL1        0.0000
     12 C           1.0412   -0.2967    1.5948 C.2     1  UNL1        0.0000
     13 C           0.9159    0.9733    2.2367 C.3     1  UNL1        0.0000
     14 C           5.7643    2.3931    2.1017 C.3     1  UNL1        0.0000
     15 C           6.3980    0.3835    4.3645 C.3     1  UNL1        0.0000
     16 C           4.0785    0.3404    6.3968 C.3     1  UNL1        0.0000
     17 C           1.8825    2.3176    5.5130 C.3     1  UNL1        0.0000
     18 C           3.5439    1.5889   -0.3963 C.3     1  UNL1        0.0000
     19 C           2.3479   -1.2569   -0.3959 C.3     1  UNL1        0.0000
     20 C           0.0592   -1.4221    1.6665 C.3     1  UNL1        0.0000
     21 C          -0.2831    1.3066    3.0666 C.3     1  UNL1        0.0000
     22 H           1.5228    5.3623    3.7860 H       1  UNL1        0.0000
     23 H           0.2140    4.2321    3.5057 H       1  UNL1        0.0000
     24 H           0.6648    5.3668    2.2618 H       1  UNL1        0.0000
     25 H           4.1993    4.5482    0.7142 H       1  UNL1        0.0000
     26 H           3.2835    5.7722    1.5523 H       1  UNL1        0.0000
     27 H           2.5764    4.9413    0.1847 H       1  UNL1        0.0000
     28 H           6.5532    2.9302    2.6319 H       1  UNL1        0.0000
     29 H           5.3456    3.0567    1.3551 H       1  UNL1        0.0000
     30 H           6.2244    1.5478    1.5903 H       1  UNL1        0.0000
     31 H           6.9254    0.9924    5.1030 H       1  UNL1        0.0000
     32 H           6.9989    0.3406    3.4605 H       1  UNL1        0.0000
     33 H           6.3072   -0.6267    4.7622 H       1  UNL1        0.0000
     34 H           4.5586   -0.6358    6.3494 H       1  UNL1        0.0000
     35 H           3.0944    0.2161    6.8406 H       1  UNL1        0.0000
     36 H           4.6760    0.9811    7.0503 H       1  UNL1        0.0000
     37 H           1.2285    1.4817    5.7609 H       1  UNL1        0.0000
     38 H           1.2893    3.1077    5.0680 H       1  UNL1        0.0000
     39 H           2.3011    2.6953    6.4476 H       1  UNL1        0.0000
     40 H           4.4827    1.0351   -0.3996 H       1  UNL1        0.0000
     41 H           3.7600    2.6448   -0.2841 H       1  UNL1        0.0000
     42 H           3.0721    1.4424   -1.3696 H       1  UNL1        0.0000
     43 H           1.5840   -1.1689   -1.1726 H       1  UNL1        0.0000
     44 H           2.2962   -2.2634    0.0166 H       1  UNL1        0.0000
     45 H           3.3241   -1.1258   -0.8546 H       1  UNL1        0.0000
     46 H          -0.5184   -1.3982    2.5864 H       1  UNL1        0.0000
     47 H           0.5564   -2.3890    1.6005 H       1  UNL1        0.0000
     48 H          -0.6299   -1.3364    0.8226 H       1  UNL1        0.0000
     49 H          -1.1817    1.2759    2.4472 H       1  UNL1        0.0000
     50 H          -0.2100    2.2926    3.5086 H       1  UNL1        0.0000
     51 H          -0.4084    0.5788    3.8681 H       1  UNL1        0.0000
@<TRIPOS>BOND
     1    42    18    1
     2    43    19    1
     3    45    19    1
     4    40    18    1
     5    18    41    1
     6    18    10    1
     7    19    44    1
     8    19    11    1
     9    27     3    1
    10    11    10    1
    11    11    12    2
    12    10     9    1
    13    25     3    1
    14    48    20    1
    15     3    26    1
    16     3     1    1
    17    29    14    1
    18    30    14    1
    19    12    20    1
    20    12    13    1
    21     9    13    1
    22     9     1    1
    23    47    20    1
    24    20    46    1
    25    14    28    1
    26    14     5    1
    27    13    21    1
    28    24     2    1
    29     1     2    1
    30     1     4    1
    31    49    21    1
    32     2    23    1
    33     2    22    1
    34    21    50    1
    35    21    51    1
    36     5     4    1
    37     5     6    1
    38     4     8    1
    39    32    15    1
    40     6    15    1
    41     6     7    2
    42    15    33    1
    43    15    31    1
    44     8     7    1
    45     8    17    1
    46     7    16    1
    47    38    17    1
    48    17    37    1
    49    17    39    1
    50    34    16    1
    51    16    35    1
    52    16    36    1
