@<TRIPOS>MOLECULE
2,3,4,5,6,7,8,9,10,11
 51 52 0 0 0
SMALL
GASTEIGER

@<TRIPOS>ATOM
      1 SI          7.6306    0.9801    3.7299 Si      1  UNL1        0.0000
      2 C           8.3669    2.7300    3.5633 C.3     1  UNL1        0.0000
      3 C           8.3344    3.4686    2.3216 C.2     1  UNL1        0.0000
      4 C           8.2714    4.8459    2.6206 C.2     1  UNL1        0.0000
      5 C           8.2677    4.9925    4.0600 C.2     1  UNL1        0.0000
      6 C           8.3279    3.7027    4.6317 C.2     1  UNL1        0.0000
      7 C           5.8351    1.6157    3.6639 C.3     1  UNL1        0.0000
      8 C           5.2222    2.1114    2.4523 C.2     1  UNL1        0.0000
      9 C           4.2732    3.0964    2.8018 C.2     1  UNL1        0.0000
     10 C           4.2760    3.2308    4.2424 C.2     1  UNL1        0.0000
     11 C           5.2247    2.3259    4.7643 C.2     1  UNL1        0.0000
     12 C           8.5809    2.9423    0.9454 C.3     1  UNL1        0.0000
     13 C           8.4711    5.9592    1.6387 C.3     1  UNL1        0.0000
     14 C           8.4698    6.2824    4.7942 C.3     1  UNL1        0.0000
     15 C           8.5663    3.4661    6.0867 C.3     1  UNL1        0.0000
     16 C           5.3395    1.5443    1.0757 C.3     1  UNL1        0.0000
     17 C           3.2422    3.6781    1.8840 C.3     1  UNL1        0.0000
     18 C           3.2522    3.9753    5.0431 C.3     1  UNL1        0.0000
     19 C           5.3461    2.0187    6.2215 C.3     1  UNL1        0.0000
     20 C           8.1381   -0.2973    2.3996 C.3     1  UNL1        0.0000
     21 C           8.1350   -0.0170    5.2824 C.3     1  UNL1        0.0000
     22 H           7.7934    3.2538    0.2607 H       1  UNL1        0.0000
     23 H           8.6407    1.8605    0.9399 H       1  UNL1        0.0000
     24 H           9.5256    3.3362    0.5650 H       1  UNL1        0.0000
     25 H           9.5388    6.1597    1.5180 H       1  UNL1        0.0000
     26 H           7.9877    6.8744    1.9769 H       1  UNL1        0.0000
     27 H           8.0600    5.6941    0.6670 H       1  UNL1        0.0000
     28 H           8.0490    6.2273    5.7960 H       1  UNL1        0.0000
     29 H           7.9978    7.1119    4.2701 H       1  UNL1        0.0000
     30 H           9.5383    6.4950    4.8818 H       1  UNL1        0.0000
     31 H           9.5653    3.8136    6.3586 H       1  UNL1        0.0000
     32 H           8.4953    2.4147    6.3372 H       1  UNL1        0.0000
     33 H           7.8479    4.0185    6.6905 H       1  UNL1        0.0000
     34 H           4.4151    1.0271    0.8100 H       1  UNL1        0.0000
     35 H           6.1549    0.8346    1.0051 H       1  UNL1        0.0000
     36 H           5.4989    2.3343    0.3434 H       1  UNL1        0.0000
     37 H           3.6385    3.7859    0.8765 H       1  UNL1        0.0000
     38 H           2.9149    4.6574    2.2296 H       1  UNL1        0.0000
     39 H           2.3705    3.0201    1.8417 H       1  UNL1        0.0000
     40 H           2.3758    3.3424    5.2045 H       1  UNL1        0.0000
     41 H           2.9306    4.8794    4.5285 H       1  UNL1        0.0000
     42 H           3.6543    4.2586    6.0136 H       1  UNL1        0.0000
     43 H           5.6284    2.9054    6.7870 H       1  UNL1        0.0000
     44 H           6.0793    1.2413    6.4013 H       1  UNL1        0.0000
     45 H           4.3844    1.6729    6.6055 H       1  UNL1        0.0000
     46 H           7.6154   -1.2290    2.5896 H       1  UNL1        0.0000
     47 H           9.2009   -0.4976    2.4893 H       1  UNL1        0.0000
     48 H           7.9456   -0.0234    1.3706 H       1  UNL1        0.0000
     49 H           7.5768   -0.9475    5.3020 H       1  UNL1        0.0000
     50 H           7.9864    0.4705    6.2370 H       1  UNL1        0.0000
     51 H           9.1872   -0.2718    5.2096 H       1  UNL1        0.0000
@<TRIPOS>BOND
     1    22    12    1
     2    36    16    1
     3    24    12    1
     4    27    13    1
     5    34    16    1
     6    37    17    1
     7    23    12    1
     8    12     3    1
     9    35    16    1
    10    16     8    1
    11    48    20    1
    12    25    13    1
    13    13    26    1
    14    13     4    1
    15    39    17    1
    16    17    38    1
    17    17     9    1
    18     3     4    2
    19     3     2    1
    20    20    47    1
    21    20    46    1
    22    20     1    1
    23     8     9    2
    24     8     7    1
    25     4     5    1
    26     9    10    1
    27     2     1    1
    28     2     6    1
    29     7     1    1
    30     7    11    1
    31     1    21    1
    32     5     6    2
    33     5    14    1
    34    10    11    2
    35    10    18    1
    36    29    14    1
    37    41    18    1
    38     6    15    1
    39    11    19    1
    40    14    30    1
    41    14    28    1
    42    18    40    1
    43    18    42    1
    44    51    21    1
    45    21    49    1
    46    21    50    1
    47    15    32    1
    48    15    31    1
    49    15    33    1
    50    19    44    1
    51    19    45    1
    52    19    43    1
