@<TRIPOS>MOLECULE
2,3,4,5,6,7,8,9,10,11
 51 52 0 0 0
SMALL
GASTEIGER

@<TRIPOS>ATOM
      1 SI          2.7153    3.0067    5.2214 Si      1  UNL1        0.0000
      2 C           3.6314    4.4356    6.0776 C.2     1  UNL1        0.0000
      3 C           3.2836    4.9204    7.3870 C.3     1  UNL1        0.0000
      4 C           4.3948    5.5999    7.9303 C.2     1  UNL1        0.0000
      5 C           5.4657    5.5039    6.9852 C.2     1  UNL1        0.0000
      6 C           5.0108    4.7837    5.8472 C.2     1  UNL1        0.0000
      7 C           3.6294    1.8168    6.3917 C.2     1  UNL1        0.0000
      8 C           3.3321    1.6437    7.7915 C.3     1  UNL1        0.0000
      9 C           4.4736    1.1101    8.4326 C.2     1  UNL1        0.0000
     10 C           5.5133    1.0114    7.4550 C.2     1  UNL1        0.0000
     11 C           5.0050    1.4372    6.1999 C.2     1  UNL1        0.0000
     12 C           1.9119    5.0282    7.9746 C.3     1  UNL1        0.0000
     13 C           4.3117    6.5342    9.0994 C.3     1  UNL1        0.0000
     14 C           6.7683    6.2465    7.0510 C.3     1  UNL1        0.0000
     15 C           5.7882    4.7101    4.5754 C.3     1  UNL1        0.0000
     16 C           1.9927    1.6612    8.4557 C.3     1  UNL1        0.0000
     17 C           4.4507    0.4447    9.7753 C.3     1  UNL1        0.0000
     18 C           6.8301    0.3207    7.6405 C.3     1  UNL1        0.0000
     19 C           5.7218    1.2030    4.9104 C.3     1  UNL1        0.0000
     20 C           2.9697    2.7998    3.3375 C.3     1  UNL1        0.0000
     21 C           0.7998    3.0133    5.2618 C.3     1  UNL1        0.0000
     22 H           1.8785    4.6198    8.9836 H       1  UNL1        0.0000
     23 H           1.1774    4.5160    7.3644 H       1  UNL1        0.0000
     24 H           1.6255    6.0805    8.0346 H       1  UNL1        0.0000
     25 H           5.2854    6.7134    9.5489 H       1  UNL1        0.0000
     26 H           3.6412    6.1458    9.8633 H       1  UNL1        0.0000
     27 H           3.9134    7.4959    8.7630 H       1  UNL1        0.0000
     28 H           6.9081    6.8349    6.1436 H       1  UNL1        0.0000
     29 H           7.6020    5.5470    7.1429 H       1  UNL1        0.0000
     30 H           6.7932    6.9209    7.9047 H       1  UNL1        0.0000
     31 H           5.6444    5.6183    3.9849 H       1  UNL1        0.0000
     32 H           5.4911    3.8621    3.9709 H       1  UNL1        0.0000
     33 H           6.8479    4.6131    4.8004 H       1  UNL1        0.0000
     34 H           1.6479    0.6358    8.6094 H       1  UNL1        0.0000
     35 H           1.2512    2.1803    7.8615 H       1  UNL1        0.0000
     36 H           2.0521    2.1392    9.4324 H       1  UNL1        0.0000
     37 H           3.9244   -0.5102    9.6924 H       1  UNL1        0.0000
     38 H           3.9251    1.0477   10.5137 H       1  UNL1        0.0000
     39 H           5.4555    0.2421   10.1381 H       1  UNL1        0.0000
     40 H           7.1645    0.3765    8.6750 H       1  UNL1        0.0000
     41 H           7.5908    0.7845    7.0160 H       1  UNL1        0.0000
     42 H           6.7406   -0.7315    7.3594 H       1  UNL1        0.0000
     43 H           6.6601    1.7541    4.8868 H       1  UNL1        0.0000
     44 H           5.1162    1.5011    4.0622 H       1  UNL1        0.0000
     45 H           5.9563    0.1421    4.8023 H       1  UNL1        0.0000
     46 H           2.7529    1.7764    3.0467 H       1  UNL1        0.0000
     47 H           3.9564    3.0479    2.9696 H       1  UNL1        0.0000
     48 H           2.2637    3.4400    2.8183 H       1  UNL1        0.0000
     49 H           0.4321    3.9605    4.8795 H       1  UNL1        0.0000
     50 H           0.3407    2.8485    6.2280 H       1  UNL1        0.0000
     51 H           0.4369    2.2343    4.5993 H       1  UNL1        0.0000
@<TRIPOS>BOND
     1    48    20    1
     2    47    20    1
     3    46    20    1
     4    20     1    1
     5    32    15    1
     6    31    15    1
     7    44    19    1
     8    15    33    1
     9    15     6    1
    10    51    21    1
    11    45    19    1
    12    49    21    1
    13    43    19    1
    14    19    11    1
    15     1    21    1
    16     1     2    1
    17     1     7    1
    18    21    50    1
    19     6     2    2
    20     6     5    1
    21     2     3    1
    22    28    14    1
    23    11     7    2
    24    11    10    1
    25     7     8    1
    26     5    14    1
    27     5     4    2
    28    41    18    1
    29    14    29    1
    30    14    30    1
    31    42    18    1
    32    23    12    1
    33     3     4    1
    34     3    12    1
    35    10    18    1
    36    10     9    2
    37    18    40    1
    38     8     9    1
    39     8    16    1
    40    35    16    1
    41     4    13    1
    42    12    24    1
    43    12    22    1
    44     9    17    1
    45    16    34    1
    46    16    36    1
    47    27    13    1
    48    13    25    1
    49    13    26    1
    50    37    17    1
    51    17    39    1
    52    17    38    1
