@<TRIPOS>MOLECULE
2,3,5,6,8,10,11,13,14,16
 51 52 0 0 0
SMALL
GASTEIGER

@<TRIPOS>ATOM
      1 SI          1.9318   -4.1680   12.5732 Si      1  UNL1        0.0000
      2 C           2.6289   -3.2550   11.0689 C.2     1  UNL1        0.0000
      3 C           2.0111   -2.1036   10.5011 C.2     1  UNL1        0.0000
      4 H           0.9442   -1.9114   10.5250 H       1  UNL1        0.0000
      5 C           2.9461   -1.4196    9.6874 C.2     1  UNL1        0.0000
      6 C           4.1830   -2.1029    9.8228 C.2     1  UNL1        0.0000
      7 H           5.0954   -1.8846    9.2797 H       1  UNL1        0.0000
      8 C           3.9865   -3.2242   10.6588 C.3     1  UNL1        0.0000
      9 H           4.7195   -4.0009   10.8503 H       1  UNL1        0.0000
     10 C           2.1947   -2.6626   13.6928 C.3     1  UNL1        0.0000
     11 C           3.3460   -2.4270   14.4934 C.3     1  UNL1        0.0000
     12 H           3.9937   -3.2076   14.8750 H       1  UNL1        0.0000
     13 C           3.3972   -1.0612   14.8567 C.2     1  UNL1        0.0000
     14 C           2.2982   -0.4254   14.2211 C.2     1  UNL1        0.0000
     15 H           1.9872    0.6019   14.3737 H       1  UNL1        0.0000
     16 C           1.5704   -1.3950   13.4993 C.3     1  UNL1        0.0000
     17 H           0.6042   -1.2284   13.0314 H       1  UNL1        0.0000
     18 C           0.1118   -4.6834   12.3883 C.3     1  UNL1        0.0000
     19 H          -0.5237   -3.8520   12.1021 H       1  UNL1        0.0000
     20 H          -0.2676   -5.0824   13.3226 H       1  UNL1        0.0000
     21 H           0.0092   -5.4540   11.6322 H       1  UNL1        0.0000
     22 C           3.0699   -5.6037   13.0912 C.3     1  UNL1        0.0000
     23 H           4.1102   -5.2988   13.1751 H       1  UNL1        0.0000
     24 H           3.0199   -6.4101   12.3676 H       1  UNL1        0.0000
     25 H           2.7649   -6.0074   14.0506 H       1  UNL1        0.0000
     26 C           2.5774   -0.4370    8.5912 C.3     1  UNL1        0.0000
     27 C           1.9984   -1.2788    7.4381 C.3     1  UNL1        0.0000
     28 H           2.7306   -2.0060    7.0941 H       1  UNL1        0.0000
     29 H           1.7308   -0.6350    6.6035 H       1  UNL1        0.0000
     30 H           1.1092   -1.8168    7.7599 H       1  UNL1        0.0000
     31 C           1.5046    0.5560    9.0568 C.3     1  UNL1        0.0000
     32 H           0.5887    0.0413    9.3410 H       1  UNL1        0.0000
     33 H           1.2620    1.2386    8.2458 H       1  UNL1        0.0000
     34 H           1.8489    1.1514    9.8997 H       1  UNL1        0.0000
     35 C           3.7986    0.3238    8.0655 C.3     1  UNL1        0.0000
     36 H           4.5106   -0.3584    7.6070 H       1  UNL1        0.0000
     37 H           4.3022    0.8744    8.8553 H       1  UNL1        0.0000
     38 H           3.4857    1.0379    7.3075 H       1  UNL1        0.0000
     39 C           4.2597   -0.4290   15.9346 C.3     1  UNL1        0.0000
     40 C           5.2732   -1.4301   16.4975 C.3     1  UNL1        0.0000
     41 H           4.7675   -2.2824   16.9463 H       1  UNL1        0.0000
     42 H           5.8684   -0.9481   17.2693 H       1  UNL1        0.0000
     43 H           5.9536   -1.7846   15.7276 H       1  UNL1        0.0000
     44 C           3.3259    0.0101   17.0758 C.3     1  UNL1        0.0000
     45 H           2.7450   -0.8357   17.4381 H       1  UNL1        0.0000
     46 H           2.6373    0.7824   16.7425 H       1  UNL1        0.0000
     47 H           3.9103    0.4076   17.9021 H       1  UNL1        0.0000
     48 C           5.0071    0.7985   15.4000 C.3     1  UNL1        0.0000
     49 H           5.7014    0.5222   14.6072 H       1  UNL1        0.0000
     50 H           5.5850    1.2542   16.2008 H       1  UNL1        0.0000
     51 H           4.3150    1.5481   15.0215 H       1  UNL1        0.0000
@<TRIPOS>BOND
     1    29    27    1
     2    28    27    1
     3    38    35    1
     4    27    30    1
     5    27    26    1
     6    36    35    1
     7    35    26    1
     8    35    37    1
     9    33    31    1
    10    26    31    1
    11    26     5    1
    12    31    32    1
    13    31    34    1
    14     7     6    1
    15     5     6    2
    16     5     3    1
    17     6     8    1
    18     3     4    1
    19     3     2    2
    20     8     9    1
    21     8     2    1
    22     2     1    1
    23    21    18    1
    24    19    18    1
    25    24    22    1
    26    18     1    1
    27    18    20    1
    28     1    22    1
    29     1    10    1
    30    17    16    1
    31    22    23    1
    32    22    25    1
    33    16    10    1
    34    16    14    1
    35    10    11    1
    36    14    15    1
    37    14    13    2
    38    11    13    1
    39    11    12    1
    40    49    48    1
    41    13    39    1
    42    51    48    1
    43    48    39    1
    44    48    50    1
    45    43    40    1
    46    39    40    1
    47    39    44    1
    48    40    41    1
    49    40    42    1
    50    46    44    1
    51    44    45    1
    52    44    47    1
