@<TRIPOS>MOLECULE
2,3,4,6,7,9,10,11,13,14
 57 58 0 0 0
SMALL
GASTEIGER

@<TRIPOS>ATOM
      1 SI          2.8856    7.2288    0.9451 Si      1  UNL1        0.0000
      2 C           1.4516    6.2987    1.7560 C.3     1  UNL1        0.0000
      3 C           0.6700    5.2563    1.1876 C.2     1  UNL1        0.0000
      4 C          -0.0080    4.5945    2.2341 C.2     1  UNL1        0.0000
      5 H          -0.7701    3.8382    2.0936 H       1  UNL1        0.0000
      6 C           0.3488    5.1896    3.4702 C.3     1  UNL1        0.0000
      7 C           1.2927    6.2040    3.1751 C.3     1  UNL1        0.0000
      8 H           1.6611    6.9389    3.8819 H       1  UNL1        0.0000
      9 C           4.1032    5.8716    1.4567 C.3     1  UNL1        0.0000
     10 C           4.5943    5.6188    2.7698 C.2     1  UNL1        0.0000
     11 C           5.1711    4.3319    2.7795 C.2     1  UNL1        0.0000
     12 H           5.7477    3.9246    3.6000 H       1  UNL1        0.0000
     13 C           5.0117    3.7363    1.5059 C.2     1  UNL1        0.0000
     14 C           4.3078    4.6694    0.7053 C.2     1  UNL1        0.0000
     15 H           4.1326    4.5754   -0.3616 H       1  UNL1        0.0000
     16 C           0.4993    4.9659   -0.2774 C.3     1  UNL1        0.0000
     17 H           0.1746    5.8619   -0.8071 H       1  UNL1        0.0000
     18 H           1.4283    4.6201   -0.7441 H       1  UNL1        0.0000
     19 H          -0.2556    4.1935   -0.4229 H       1  UNL1        0.0000
     20 C           4.6337    6.5553    3.9471 C.3     1  UNL1        0.0000
     21 H           5.6672    6.7174    4.2595 H       1  UNL1        0.0000
     22 H           4.2056    7.5237    3.7004 H       1  UNL1        0.0000
     23 H           4.1010    6.1372    4.8103 H       1  UNL1        0.0000
     24 C          -0.4420    5.0356    4.7557 C.3     1  UNL1        0.0000
     25 C           0.3473    5.5182    5.9776 C.3     1  UNL1        0.0000
     26 H           1.2726    4.9618    6.1035 H       1  UNL1        0.0000
     27 H           0.5800    6.5782    5.8979 H       1  UNL1        0.0000
     28 H          -0.2492    5.3769    6.8757 H       1  UNL1        0.0000
     29 C          -0.8953    3.5857    4.9648 C.3     1  UNL1        0.0000
     30 H          -0.0517    2.8998    4.9831 H       1  UNL1        0.0000
     31 H          -1.4195    3.4972    5.9133 H       1  UNL1        0.0000
     32 H          -1.5769    3.2729    4.1774 H       1  UNL1        0.0000
     33 C          -1.6912    5.9241    4.6044 C.3     1  UNL1        0.0000
     34 H          -1.4059    6.9633    4.4536 H       1  UNL1        0.0000
     35 H          -2.2860    5.6067    3.7511 H       1  UNL1        0.0000
     36 H          -2.3061    5.8594    5.4990 H       1  UNL1        0.0000
     37 C           5.7542    2.4881    1.0682 C.3     1  UNL1        0.0000
     38 C           5.3662    2.0589   -0.3495 C.3     1  UNL1        0.0000
     39 H           4.3037    1.8450   -0.4286 H       1  UNL1        0.0000
     40 H           5.6269    2.8309   -1.0709 H       1  UNL1        0.0000
     41 H           5.9073    1.1545   -0.6168 H       1  UNL1        0.0000
     42 C           5.5072    1.3346    2.0497 C.3     1  UNL1        0.0000
     43 H           4.4605    1.0378    2.0609 H       1  UNL1        0.0000
     44 H           6.0943    0.4679    1.7549 H       1  UNL1        0.0000
     45 H           5.7999    1.6080    3.0615 H       1  UNL1        0.0000
     46 C           3.1536    8.9607    1.6960 C.3     1  UNL1        0.0000
     47 H           2.7603    9.0558    2.7024 H       1  UNL1        0.0000
     48 H           4.2070    9.2191    1.7192 H       1  UNL1        0.0000
     49 H           2.6504    9.7008    1.0833 H       1  UNL1        0.0000
     50 C           2.8121    7.4250   -0.9480 C.3     1  UNL1        0.0000
     51 H           2.8239    6.4834   -1.4849 H       1  UNL1        0.0000
     52 H           1.9167    7.9625   -1.2409 H       1  UNL1        0.0000
     53 H           3.6647    8.0052   -1.2850 H       1  UNL1        0.0000
     54 C           7.2548    2.8325    1.0742 C.3     1  UNL1        0.0000
     55 H           7.4532    3.6802    0.4214 H       1  UNL1        0.0000
     56 H           7.5910    3.0861    2.0763 H       1  UNL1        0.0000
     57 H           7.8336    1.9817    0.7224 H       1  UNL1        0.0000
@<TRIPOS>BOND
     1    51    50    1
     2    53    50    1
     3    52    50    1
     4    40    38    1
     5    50     1    1
     6    17    16    1
     7    18    16    1
     8    41    38    1
     9    39    38    1
    10    19    16    1
    11    15    14    1
    12    38    37    1
    13    16     3    1
    14    55    54    1
    15    14     9    1
    16    14    13    2
    17    57    54    1
    18     1     9    1
    19     1    46    1
    20     1     2    1
    21    37    54    1
    22    37    13    1
    23    37    42    1
    24    54    56    1
    25    49    46    1
    26     3     2    1
    27     3     4    2
    28     9    10    1
    29    13    11    1
    30    46    48    1
    31    46    47    1
    32    44    42    1
    33     2     7    1
    34    42    43    1
    35    42    45    1
    36     5     4    1
    37     4     6    1
    38    10    11    2
    39    10    20    1
    40    11    12    1
    41     7     6    1
    42     7     8    1
    43     6    24    1
    44    22    20    1
    45    35    33    1
    46    20    21    1
    47    20    23    1
    48    32    29    1
    49    34    33    1
    50    33    24    1
    51    33    36    1
    52    24    29    1
    53    24    25    1
    54    29    30    1
    55    29    31    1
    56    27    25    1
    57    25    26    1
    58    25    28    1
