@<TRIPOS>MOLECULE
2,3,5,6,8,10,11,13,14,16
 51 52 0 0 0
SMALL
GASTEIGER

@<TRIPOS>ATOM
      1 SI          4.6382    9.2682   14.0448 Si      1  UNL1        0.0000
      2 C           5.3453    8.3666   12.5385 C.2     1  UNL1        0.0000
      3 C           4.7202    7.2172   11.9759 C.2     1  UNL1        0.0000
      4 H           3.6513    7.0400   11.9862 H       1  UNL1        0.0000
      5 C           5.6600    6.4987   11.2018 C.2     1  UNL1        0.0000
      6 C           6.9034    7.1707   11.3383 C.2     1  UNL1        0.0000
      7 H           7.8244    6.9247   10.8221 H       1  UNL1        0.0000
      8 C           6.7075    8.3114   12.1476 C.3     1  UNL1        0.0000
      9 H           7.4534    9.0733   12.3476 H       1  UNL1        0.0000
     10 C           4.8308    7.7436   15.1543 C.3     1  UNL1        0.0000
     11 C           5.9665    7.4863   15.9692 C.3     1  UNL1        0.0000
     12 H           6.6125    8.2542   16.3764 H       1  UNL1        0.0000
     13 C           6.0231    6.1094   16.2820 C.2     1  UNL1        0.0000
     14 C           4.9339    5.4896   15.6126 C.2     1  UNL1        0.0000
     15 H           4.6293    4.4543   15.7203 H       1  UNL1        0.0000
     16 C           4.2119    6.4817   14.9156 C.3     1  UNL1        0.0000
     17 H           3.2541    6.3266   14.4290 H       1  UNL1        0.0000
     18 C           2.8403    9.8452   13.8251 C.3     1  UNL1        0.0000
     19 H           2.1818    9.0338   13.5346 H       1  UNL1        0.0000
     20 H           2.7771   10.6128   13.0618 H       1  UNL1        0.0000
     21 H           2.4596   10.2645   14.7498 H       1  UNL1        0.0000
     22 C           5.8040   10.6609   14.6168 C.3     1  UNL1        0.0000
     23 H           6.8334   10.3232   14.7078 H       1  UNL1        0.0000
     24 H           5.4950   11.0483   15.5817 H       1  UNL1        0.0000
     25 H           5.7876   11.4866   13.9139 H       1  UNL1        0.0000
     26 C           5.2986    5.4404   10.1769 C.3     1  UNL1        0.0000
     27 C           4.2701    4.4505   10.7422 C.3     1  UNL1        0.0000
     28 H           4.0258    3.7062    9.9878 H       1  UNL1        0.0000
     29 H           3.3471    4.9570   11.0185 H       1  UNL1        0.0000
     30 H           4.6611    3.9275   11.6134 H       1  UNL1        0.0000
     31 C           4.6703    6.1785    8.9804 C.3     1  UNL1        0.0000
     32 H           4.4062    5.4692    8.1994 H       1  UNL1        0.0000
     33 H           5.3728    6.9005    8.5701 H       1  UNL1        0.0000
     34 H           3.7717    6.7116    9.2827 H       1  UNL1        0.0000
     35 C           6.5322    4.6773    9.6847 C.3     1  UNL1        0.0000
     36 H           6.2288    3.9098    8.9764 H       1  UNL1        0.0000
     37 H           7.0541    4.1911   10.5046 H       1  UNL1        0.0000
     38 H           7.2219    5.3470    9.1764 H       1  UNL1        0.0000
     39 C           6.9101    5.4397   17.3157 C.3     1  UNL1        0.0000
     40 C           7.9189    6.4309   17.9050 C.3     1  UNL1        0.0000
     41 H           8.5392    5.9236   18.6400 H       1  UNL1        0.0000
     42 H           7.4087    7.2519   18.4041 H       1  UNL1        0.0000
     43 H           8.5727    6.8314   17.1340 H       1  UNL1        0.0000
     44 C           7.6733    4.2586   16.7022 C.3     1  UNL1        0.0000
     45 H           8.2571    3.7594   17.4725 H       1  UNL1        0.0000
     46 H           8.3634    4.5993   15.9304 H       1  UNL1        0.0000
     47 H           6.9916    3.5270   16.2724 H       1  UNL1        0.0000
     48 C           6.0067    4.9240   18.4484 C.3     1  UNL1        0.0000
     49 H           6.6126    4.4936   19.2422 H       1  UNL1        0.0000
     50 H           5.3255    4.1586   18.0854 H       1  UNL1        0.0000
     51 H           5.4182    5.7387   18.8651 H       1  UNL1        0.0000
@<TRIPOS>BOND
     1    32    31    1
     2    33    31    1
     3    36    35    1
     4    31    34    1
     5    31    26    1
     6    38    35    1
     7    35    26    1
     8    35    37    1
     9    28    27    1
    10    26    27    1
    11    26     5    1
    12    27    29    1
    13    27    30    1
    14     7     6    1
    15     5     6    2
    16     5     3    1
    17     6     8    1
    18     3     4    1
    19     3     2    2
    20     8     9    1
    21     8     2    1
    22     2     1    1
    23    20    18    1
    24    19    18    1
    25    18     1    1
    26    18    21    1
    27    25    22    1
    28     1    22    1
    29     1    10    1
    30    17    16    1
    31    22    23    1
    32    22    24    1
    33    16    10    1
    34    16    14    1
    35    10    11    1
    36    14    15    1
    37    14    13    2
    38    46    44    1
    39    11    13    1
    40    11    12    1
    41    47    44    1
    42    13    39    1
    43    44    39    1
    44    44    45    1
    45    43    40    1
    46    39    40    1
    47    39    48    1
    48    40    42    1
    49    40    41    1
    50    50    48    1
    51    48    51    1
    52    48    49    1
