@<TRIPOS>MOLECULE
2,3,4,6,7,30,31,32,33,39
 57 58 0 0 0
SMALL
GASTEIGER

@<TRIPOS>ATOM
      1 SI         -0.0001    5.3390    3.1145 Si      1  UNL1        0.0000
      2 C           0.6564    4.0410    1.9104 C.3     1  UNL1        0.0000
      3 C          -0.1012    3.3095    0.9596 C.2     1  UNL1        0.0000
      4 C           0.6141    2.1477    0.6216 C.2     1  UNL1        0.0000
      5 H           0.3189    1.4429   -0.1449 H       1  UNL1        0.0000
      6 C           1.8060    2.1005    1.3871 C.3     1  UNL1        0.0000
      7 C           1.8253    3.2626    2.1956 C.3     1  UNL1        0.0000
      8 H           2.6603    3.6048    2.7964 H       1  UNL1        0.0000
      9 C          -1.4189    3.7023    0.3499 C.3     1  UNL1        0.0000
     10 H          -1.5194    4.7842    0.3069 H       1  UNL1        0.0000
     11 H          -2.2597    3.2943    0.9212 H       1  UNL1        0.0000
     12 H          -1.4917    3.3098   -0.6639 H       1  UNL1        0.0000
     13 C           2.8659    1.0289    1.2420 C.3     1  UNL1        0.0000
     14 C           2.1816   -0.3492    1.2537 C.3     1  UNL1        0.0000
     15 H           2.9295   -1.1401    1.2754 H       1  UNL1        0.0000
     16 H           1.5730   -0.4860    0.3621 H       1  UNL1        0.0000
     17 H           1.5357   -0.4534    2.1307 H       1  UNL1        0.0000
     18 C           3.5979    1.2276   -0.0949 C.3     1  UNL1        0.0000
     19 H           4.3502    0.4544   -0.2349 H       1  UNL1        0.0000
     20 H           4.0888    2.1980   -0.1151 H       1  UNL1        0.0000
     21 H           2.8969    1.1843   -0.9246 H       1  UNL1        0.0000
     22 C           3.8832    1.1010    2.3859 C.3     1  UNL1        0.0000
     23 H           4.6133    0.3004    2.2840 H       1  UNL1        0.0000
     24 H           3.3867    0.9910    3.3487 H       1  UNL1        0.0000
     25 H           4.4196    2.0475    2.3661 H       1  UNL1        0.0000
     26 C          -1.3981    6.4839    2.4943 C.3     1  UNL1        0.0000
     27 H          -2.3214    5.9539    2.2913 H       1  UNL1        0.0000
     28 H          -1.1017    7.0029    1.5892 H       1  UNL1        0.0000
     29 H          -1.6125    7.2376    3.2446 H       1  UNL1        0.0000
     30 C          -0.6565    4.0412    4.3187 C.3     1  UNL1        0.0000
     31 C           0.1011    3.3096    5.2695 C.2     1  UNL1        0.0000
     32 C          -1.8254    3.2627    4.0335 C.3     1  UNL1        0.0000
     33 C          -0.6143    2.1479    5.6077 C.2     1  UNL1        0.0000
     34 C           1.4189    3.7022    5.8790 C.3     1  UNL1        0.0000
     35 H           1.5198    4.7840    5.9216 H       1  UNL1        0.0000
     36 H           2.2595    3.2936    5.3080 H       1  UNL1        0.0000
     37 H           1.4914    3.3100    6.8930 H       1  UNL1        0.0000
     38 H          -0.3189    1.4430    6.3739 H       1  UNL1        0.0000
     39 C          -1.8061    2.1006    4.8420 C.3     1  UNL1        0.0000
     40 H          -2.6604    3.6049    3.4328 H       1  UNL1        0.0000
     41 C          -2.8659    1.0289    4.9871 C.3     1  UNL1        0.0000
     42 C          -2.1816   -0.3492    4.9753 C.3     1  UNL1        0.0000
     43 H          -2.9295   -1.1401    4.9536 H       1  UNL1        0.0000
     44 H          -1.5729   -0.4861    5.8669 H       1  UNL1        0.0000
     45 H          -1.5358   -0.4534    4.0984 H       1  UNL1        0.0000
     46 C          -3.5976    1.2276    6.3241 C.3     1  UNL1        0.0000
     47 H          -4.3501    0.4544    6.4642 H       1  UNL1        0.0000
     48 H          -4.0884    2.1981    6.3445 H       1  UNL1        0.0000
     49 H          -2.8965    1.1841    7.1537 H       1  UNL1        0.0000
     50 C          -3.8834    1.1011    3.8434 C.3     1  UNL1        0.0000
     51 H          -4.6134    0.3005    3.9453 H       1  UNL1        0.0000
     52 H          -3.3870    0.9912    2.8805 H       1  UNL1        0.0000
     53 H          -4.4197    2.0476    3.8634 H       1  UNL1        0.0000
     54 C           1.3979    6.4840    3.7345 C.3     1  UNL1        0.0000
     55 H           2.3212    5.9539    3.9376 H       1  UNL1        0.0000
     56 H           1.1016    7.0030    4.6397 H       1  UNL1        0.0000
     57 H           1.6123    7.2376    2.9843 H       1  UNL1        0.0000
@<TRIPOS>BOND
     1    21    18    1
     2    12     9    1
     3    19    18    1
     4     5     4    1
     5    20    18    1
     6    18    13    1
     7    10     9    1
     8     9    11    1
     9     9     3    1
    10    16    14    1
    11     4     3    2
    12     4     6    1
    13     3     2    1
    14    13    14    1
    15    13     6    1
    16    13    22    1
    17    14    15    1
    18    14    17    1
    19     6     7    1
    20    28    26    1
    21     2     7    1
    22     2     1    1
    23     7     8    1
    24    23    22    1
    25    27    26    1
    26    25    22    1
    27    22    24    1
    28    26     1    1
    29    26    29    1
    30    52    50    1
    31    57    54    1
    32     1    54    1
    33     1    30    1
    34    40    32    1
    35    54    55    1
    36    54    56    1
    37    50    53    1
    38    50    51    1
    39    50    41    1
    40    32    30    1
    41    32    39    1
    42    45    42    1
    43    30    31    1
    44    39    41    1
    45    39    33    1
    46    43    42    1
    47    42    41    1
    48    42    44    1
    49    41    46    1
    50    31    33    2
    51    31    34    1
    52    36    34    1
    53    33    38    1
    54    34    35    1
    55    34    37    1
    56    46    48    1
    57    46    47    1
    58    46    49    1
