@<TRIPOS>MOLECULE
7,8,9,10,15,16,17,18,19
 53 54 0 0 0
SMALL
GASTEIGER

@<TRIPOS>ATOM
      1 SI          9.0871    3.9415    3.5868 Si      1  UNL1        0.0000
      2 C           8.7857    5.2597    4.9212 C.2     1  UNL1        0.0000
      3 C           8.2041    6.4279    4.7004 C.2     1  UNL1        0.0000
      4 C          10.7887    4.4789    2.9347 C.2     1  UNL1        0.0000
      5 C          10.9745    5.3528    1.9582 C.2     1  UNL1        0.0000
      6 C           9.0357    2.1615    4.2296 C.3     1  UNL1        0.0000
      7 C           9.5790    1.0372    3.5234 C.3     1  UNL1        0.0000
      8 C           8.9461   -0.1403    3.9937 C.2     1  UNL1        0.0000
      9 C           7.9764    0.2361    4.9595 C.2     1  UNL1        0.0000
     10 C           8.0080    1.6470    5.0882 C.3     1  UNL1        0.0000
     11 C          10.7510    1.0285    2.5816 C.3     1  UNL1        0.0000
     12 C           9.3163   -1.5529    3.6468 C.3     1  UNL1        0.0000
     13 C           7.1652   -0.7188    5.7861 C.3     1  UNL1        0.0000
     14 C           7.2099    2.4043    6.1130 C.3     1  UNL1        0.0000
     15 C           7.7122    3.6858    2.3054 C.3     1  UNL1        0.0000
     16 C           7.8887    2.9762    1.0688 C.3     1  UNL1        0.0000
     17 C           6.6232    2.5212    0.6232 C.2     1  UNL1        0.0000
     18 C           5.6540    2.8971    1.5886 C.2     1  UNL1        0.0000
     19 C           6.3172    3.5855    2.6343 C.3     1  UNL1        0.0000
     20 C           9.1359    2.8575    0.2370 C.3     1  UNL1        0.0000
     21 C           6.3208    1.8754   -0.6976 C.3     1  UNL1        0.0000
     22 C           4.1718    2.7106    1.4423 C.3     1  UNL1        0.0000
     23 C           5.5834    4.2335    3.7758 C.3     1  UNL1        0.0000
     24 H           9.2120    5.0739    5.8992 H       1  UNL1        0.0000
     25 H          11.6560    4.1162    3.4722 H       1  UNL1        0.0000
     26 H           8.1165    7.1869    5.4631 H       1  UNL1        0.0000
     27 H           7.7758    6.6727    3.7424 H       1  UNL1        0.0000
     28 H          10.1477    5.7588    1.3993 H       1  UNL1        0.0000
     29 H          11.9552    5.6945    1.6631 H       1  UNL1        0.0000
     30 H          11.5902    0.4971    3.0360 H       1  UNL1        0.0000
     31 H          10.4982    0.5114    1.6524 H       1  UNL1        0.0000
     32 H          11.0798    2.0381    2.3496 H       1  UNL1        0.0000
     33 H           8.4264   -2.1785    3.5688 H       1  UNL1        0.0000
     34 H           9.8470   -1.5966    2.6980 H       1  UNL1        0.0000
     35 H           9.9589   -1.9760    4.4222 H       1  UNL1        0.0000
     36 H           6.3097   -0.2181    6.2349 H       1  UNL1        0.0000
     37 H           6.7957   -1.5430    5.1746 H       1  UNL1        0.0000
     38 H           7.7780   -1.1409    6.5859 H       1  UNL1        0.0000
     39 H           7.3854    3.4744    6.0392 H       1  UNL1        0.0000
     40 H           6.1410    2.2075    5.9961 H       1  UNL1        0.0000
     41 H           7.4954    2.0848    7.1177 H       1  UNL1        0.0000
     42 H           9.3416    1.8108   -0.0023 H       1  UNL1        0.0000
     43 H           9.0035    3.3898   -0.7076 H       1  UNL1        0.0000
     44 H           9.9958    3.2859    0.7432 H       1  UNL1        0.0000
     45 H           5.5628    1.0992   -0.5842 H       1  UNL1        0.0000
     46 H           5.9398    2.6182   -1.4027 H       1  UNL1        0.0000
     47 H           7.2122    1.4201   -1.1246 H       1  UNL1        0.0000
     48 H           3.7596    3.4715    0.7752 H       1  UNL1        0.0000
     49 H           3.9451    1.7319    1.0174 H       1  UNL1        0.0000
     50 H           3.6700    2.7879    2.4049 H       1  UNL1        0.0000
     51 H           6.2663    4.7250    4.4623 H       1  UNL1        0.0000
     52 H           4.8930    4.9880    3.3923 H       1  UNL1        0.0000
     53 H           4.9914    3.4943    4.3221 H       1  UNL1        0.0000
@<TRIPOS>BOND
     1    46    21    1
     2    47    21    1
     3    43    20    1
     4    21    45    1
     5    21    17    1
     6    42    20    1
     7    20    44    1
     8    20    16    1
     9    17    16    1
    10    17    18    2
    11    48    22    1
    12    49    22    1
    13    16    15    1
    14    28     5    1
    15    22    18    1
    16    22    50    1
    17    18    19    1
    18    31    11    1
    19    29     5    1
    20     5     4    2
    21    15    19    1
    22    15     1    1
    23    32    11    1
    24    11    30    1
    25    11     7    1
    26    19    23    1
    27    34    12    1
    28     4    25    1
    29     4     1    1
    30    52    23    1
    31     7     8    1
    32     7     6    1
    33    33    12    1
    34     1     6    1
    35     1     2    1
    36    12     8    1
    37    12    35    1
    38    27     3    1
    39    23    53    1
    40    23    51    1
    41     8     9    2
    42     6    10    1
    43     3     2    2
    44     3    26    1
    45     2    24    1
    46     9    10    1
    47     9    13    1
    48    10    14    1
    49    37    13    1
    50    13    36    1
    51    13    38    1
    52    40    14    1
    53    39    14    1
    54    14    41    1
