@<TRIPOS>MOLECULE
2,3,5,7,9,12,21,22,31
 53 58 0 0 0
SMALL
GASTEIGER

@<TRIPOS>ATOM
      1 SI         -1.5329    2.6542   25.7764 Si      1  UNL1        0.0000
      2 C          -1.6700    1.9545   24.0206 C.3     1  UNL1        0.0000
      3 C          -2.8046    2.1505   23.1810 C.2     1  UNL1        0.0000
      4 H          -3.8296    2.2275   23.5208 H       1  UNL1        0.0000
      5 C          -2.3969    2.0075   21.8360 C.2     1  UNL1        0.0000
      6 H          -3.0512    1.9715   20.9762 H       1  UNL1        0.0000
      7 C          -1.0048    1.7792   21.8224 C.2     1  UNL1        0.0000
      8 H          -0.4125    1.5387   20.9507 H       1  UNL1        0.0000
      9 C          -0.5480    1.7792   23.1594 C.2     1  UNL1        0.0000
     10 H           0.4541    1.5243   23.4803 H       1  UNL1        0.0000
     11 C          -1.2496    4.4179   25.1682 C.3     1  UNL1        0.0000
     12 C          -2.2701    5.3783   24.7985 C.ar    1  UNL1        0.0000
     13 C          -3.6708    5.3377   24.9170 C.ar    1  UNL1        0.0000
     14 H          -4.1593    4.4802   25.3606 H       1  UNL1        0.0000
     15 C          -4.4069    6.4245   24.4976 C.ar    1  UNL1        0.0000
     16 H          -5.4826    6.4021   24.5876 H       1  UNL1        0.0000
     17 C          -3.7943    7.5586   23.9573 C.ar    1  UNL1        0.0000
     18 H          -4.4070    8.3880   23.6402 H       1  UNL1        0.0000
     19 C          -2.4238    7.6280   23.8216 C.ar    1  UNL1        0.0000
     20 H          -1.9549    8.5060   23.4025 H       1  UNL1        0.0000
     21 C          -1.6463    6.5455   24.2311 C.ar    1  UNL1        0.0000
     22 C          -0.2235    6.3214   24.2279 C.ar    1  UNL1        0.0000
     23 C           0.8469    7.1133   23.8146 C.ar    1  UNL1        0.0000
     24 H           0.6685    8.0932   23.3969 H       1  UNL1        0.0000
     25 C           2.1304    6.6260   23.9443 C.ar    1  UNL1        0.0000
     26 H           2.9669    7.2271   23.6235 H       1  UNL1        0.0000
     27 C           2.3671    5.3577   24.4814 C.ar    1  UNL1        0.0000
     28 H           3.3841    5.0049   24.5650 H       1  UNL1        0.0000
     29 C           1.3343    4.5492   24.9038 C.ar    1  UNL1        0.0000
     30 H           1.5370    3.5812   25.3423 H       1  UNL1        0.0000
     31 C           0.0139    5.0184   24.7918 C.ar    1  UNL1        0.0000
     32 C          -0.0710    1.9232   26.7286 C.ar    1  UNL1        0.0000
     33 C           0.5579    2.6524   27.7341 C.ar    1  UNL1        0.0000
     34 H           0.2276    3.6590   27.9438 H       1  UNL1        0.0000
     35 C           1.6062    2.1109   28.4549 C.ar    1  UNL1        0.0000
     36 H           2.0871    2.6927   29.2275 H       1  UNL1        0.0000
     37 C           2.0413    0.8240   28.1841 C.ar    1  UNL1        0.0000
     38 H           2.8618    0.4001   28.7444 H       1  UNL1        0.0000
     39 C           1.4205    0.0827   27.1929 C.ar    1  UNL1        0.0000
     40 H           1.7555   -0.9220   26.9792 H       1  UNL1        0.0000
     41 C           0.3723    0.6287   26.4743 C.ar    1  UNL1        0.0000
     42 H          -0.1098    0.0456   25.7035 H       1  UNL1        0.0000
     43 C          -3.1262    2.4437   26.7742 C.ar    1  UNL1        0.0000
     44 C          -3.9787    1.3674   26.5470 C.ar    1  UNL1        0.0000
     45 H          -3.7394    0.6575   25.7690 H       1  UNL1        0.0000
     46 C          -5.1259    1.1987   27.3013 C.ar    1  UNL1        0.0000
     47 H          -5.7791    0.3600   27.1096 H       1  UNL1        0.0000
     48 C          -5.4367    2.1041   28.3020 C.ar    1  UNL1        0.0000
     49 H          -6.3327    1.9743   28.8910 H       1  UNL1        0.0000
     50 C          -4.5943    3.1763   28.5452 C.ar    1  UNL1        0.0000
     51 H          -4.8327    3.8850   29.3247 H       1  UNL1        0.0000
     52 C          -3.4492    3.3414   27.7882 C.ar    1  UNL1        0.0000
     53 H          -2.7999    4.1837   27.9761 H       1  UNL1        0.0000
@<TRIPOS>BOND
     1     8     7    1
     2     6     5    1
     3     7     5    1
     4     7     9    2
     5     5     3    2
     6     9    10    1
     7     9     2    1
     8     3     4    1
     9     3     2    1
    10    24    23    1
    11    20    19    1
    12    26    25    1
    13    18    17    1
    14    23    25   ar
    15    23    22   ar
    16    19    17   ar
    17    19    21   ar
    18    25    27   ar
    19    17    15   ar
    20     2     1    1
    21    22    21    1
    22    22    31   ar
    23    21    12   ar
    24    27    28    1
    25    27    29   ar
    26    15    16    1
    27    15    13   ar
    28    31    29   ar
    29    31    11    1
    30    12    13   ar
    31    12    11    1
    32    29    30    1
    33    13    14    1
    34    11     1    1
    35    42    41    1
    36    45    44    1
    37     1    32    1
    38     1    43    1
    39    41    32   ar
    40    41    39   ar
    41    44    43   ar
    42    44    46   ar
    43    32    33   ar
    44    43    52   ar
    45    40    39    1
    46    47    46    1
    47    39    37   ar
    48    46    48   ar
    49    33    34    1
    50    33    35   ar
    51    52    53    1
    52    52    50   ar
    53    37    35   ar
    54    37    38    1
    55    48    50   ar
    56    48    49    1
    57    35    36    1
    58    50    51    1
