@<TRIPOS>MOLECULE
10,11,12,13,14,32,34,35,36
 48 50 0 0 0
SMALL
GASTEIGER

@<TRIPOS>ATOM
      1 SI         -2.3678    0.7881    7.0928 Si      1  UNL1        0.0000
      2 C          -4.2664    0.7197    6.8710 C.3     1  UNL1        0.0000
      3 H          -4.7163    0.2682    7.7490 H       1  UNL1        0.0000
      4 H          -4.5232    0.1002    6.0179 H       1  UNL1        0.0000
      5 H          -4.7306    1.6872    6.7299 H       1  UNL1        0.0000
      6 C          -1.9073   -1.0205    7.5261 C.3     1  UNL1        0.0000
      7 H          -0.9368   -1.1126    7.9995 H       1  UNL1        0.0000
      8 H          -1.9119   -1.6492    6.6418 H       1  UNL1        0.0000
      9 H          -2.6412   -1.4260    8.2146 H       1  UNL1        0.0000
     10 C          -1.3776    1.5744    5.6804 C.3     1  UNL1        0.0000
     11 C          -1.7553    2.7649    4.9842 C.2     1  UNL1        0.0000
     12 C          -0.6067    3.3164    4.3731 C.2     1  UNL1        0.0000
     13 C           0.5050    2.4945    4.7072 C.2     1  UNL1        0.0000
     14 C           0.0377    1.4409    5.5244 C.2     1  UNL1        0.0000
     15 C          -3.1605    3.2677    4.7818 C.3     1  UNL1        0.0000
     16 H          -3.2392    3.7883    3.8282 H       1  UNL1        0.0000
     17 H          -3.4688    3.9621    5.5709 H       1  UNL1        0.0000
     18 H          -3.8585    2.4338    4.7623 H       1  UNL1        0.0000
     19 C          -0.5817    4.4551    3.3914 C.3     1  UNL1        0.0000
     20 H           0.3684    4.9867    3.4345 H       1  UNL1        0.0000
     21 H          -1.3810    5.1668    3.5908 H       1  UNL1        0.0000
     22 H          -0.7062    4.0800    2.3723 H       1  UNL1        0.0000
     23 C           1.8844    2.6107    4.1194 C.3     1  UNL1        0.0000
     24 H           2.6397    2.2167    4.7979 H       1  UNL1        0.0000
     25 H           2.1292    3.6484    3.8970 H       1  UNL1        0.0000
     26 H           1.9437    2.0492    3.1835 H       1  UNL1        0.0000
     27 C           0.8935    0.3021    6.0145 C.3     1  UNL1        0.0000
     28 H           1.6843    0.0913    5.2951 H       1  UNL1        0.0000
     29 H           0.2984   -0.5996    6.1273 H       1  UNL1        0.0000
     30 H           1.3689    0.5280    6.9768 H       1  UNL1        0.0000
     31 C          -1.7459    1.9733    8.4219 C.3     1  UNL1        0.0000
     32 C          -0.4559    1.8615    9.0145 C.2     1  UNL1        0.0000
     33 H           0.1049    0.9348    9.0877 H       1  UNL1        0.0000
     34 C          -0.0926    3.0518    9.6584 C.2     1  UNL1        0.0000
     35 C          -1.1568    3.9779    9.4602 C.ar    1  UNL1        0.0000
     36 C          -2.1788    3.3134    8.6727 C.ar    1  UNL1        0.0000
     37 C          -3.3707    4.0056    8.3807 C.ar    1  UNL1        0.0000
     38 H          -4.1733    3.5099    7.8490 H       1  UNL1        0.0000
     39 C          -3.5429    5.2842    8.8538 C.ar    1  UNL1        0.0000
     40 H          -4.4624    5.8138    8.6470 H       1  UNL1        0.0000
     41 C          -2.5567    5.9174    9.6289 C.ar    1  UNL1        0.0000
     42 H          -2.7430    6.9161    9.9964 H       1  UNL1        0.0000
     43 C          -1.3800    5.2811    9.9378 C.ar    1  UNL1        0.0000
     44 H          -0.6400    5.7656   10.5617 H       1  UNL1        0.0000
     45 C           1.0918    3.2490   10.5590 C.3     1  UNL1        0.0000
     46 H           1.4789    4.2649   10.4858 H       1  UNL1        0.0000
     47 H           1.8899    2.5513   10.3080 H       1  UNL1        0.0000
     48 H           0.8082    3.0770   11.6003 H       1  UNL1        0.0000
@<TRIPOS>BOND
     1    22    19    1
     2    26    23    1
     3    19    20    1
     4    19    21    1
     5    19    12    1
     6    16    15    1
     7    25    23    1
     8    23    13    1
     9    23    24    1
    10    12    13    1
    11    12    11    2
    12    13    14    2
    13    18    15    1
    14    15    11    1
    15    15    17    1
    16    11    10    1
    17    28    27    1
    18    14    10    1
    19    14    27    1
    20    10     1    1
    21    27    29    1
    22    27    30    1
    23     4     2    1
    24     8     6    1
    25     5     2    1
    26     2     1    1
    27     2     3    1
    28     1     6    1
    29     1    31    1
    30     6     7    1
    31     6     9    1
    32    38    37    1
    33    37    36   ar
    34    37    39   ar
    35    31    36    1
    36    31    32    1
    37    40    39    1
    38    36    35   ar
    39    39    41   ar
    40    32    33    1
    41    32    34    2
    42    35    34    1
    43    35    43   ar
    44    41    43   ar
    45    41    42    1
    46    34    45    1
    47    43    44    1
    48    47    45    1
    49    46    45    1
    50    45    48    1
