@<TRIPOS>MOLECULE
2,12,13,14,15,20,33,34,39,40
 45 47 0 0 0
SMALL
GASTEIGER

@<TRIPOS>ATOM
      1 SI         -0.5709    2.0034    3.0802 Si      1  UNL1        0.0000
      2 C           1.0997    4.3529    3.4493 C.2     1  UNL1        0.0000
      3 H           1.8048    3.8397    4.0947 H       1  UNL1        0.0000
      4 C           0.0798    1.1263    4.6563 C.3     1  UNL1        0.0000
      5 H           0.9093    1.6482    5.1205 H       1  UNL1        0.0000
      6 H           0.3963    0.1108    4.4429 H       1  UNL1        0.0000
      7 H          -0.7135    1.0694    5.3940 H       1  UNL1        0.0000
      8 C          -2.4294    1.5544    3.0589 C.3     1  UNL1        0.0000
      9 H          -2.8949    1.8992    3.9766 H       1  UNL1        0.0000
     10 H          -2.5508    0.4769    3.0167 H       1  UNL1        0.0000
     11 H          -2.9809    1.9810    2.2314 H       1  UNL1        0.0000
     12 C          -0.1110    1.8478    0.1660 C.2     1  UNL1        0.0000
     13 C           1.8241    1.7056    1.3886 C.2     1  UNL1        0.0000
     14 C           0.3988    1.6550    1.4884 C.3     1  UNL1        0.0000
     15 C           0.9772    1.9569   -0.7294 C.2     1  UNL1        0.0000
     16 C          -1.5638    1.7959   -0.2272 C.3     1  UNL1        0.0000
     17 H          -1.6617    1.6369   -1.2996 H       1  UNL1        0.0000
     18 H          -2.0909    2.7214    0.0279 H       1  UNL1        0.0000
     19 H          -2.0598    0.9680    0.2775 H       1  UNL1        0.0000
     20 C           2.1768    1.8673    0.0298 C.2     1  UNL1        0.0000
     21 C           0.9132    1.9875   -2.2314 C.3     1  UNL1        0.0000
     22 H           0.9993    0.9759   -2.6357 H       1  UNL1        0.0000
     23 H           1.7306    2.5799   -2.6425 H       1  UNL1        0.0000
     24 H          -0.0252    2.4134   -2.5817 H       1  UNL1        0.0000
     25 C           2.8303    1.4778    2.4859 C.3     1  UNL1        0.0000
     26 H           3.4830    0.6414    2.2273 H       1  UNL1        0.0000
     27 H           2.3384    1.2376    3.4232 H       1  UNL1        0.0000
     28 H           3.4673    2.3575    2.6358 H       1  UNL1        0.0000
     29 C           3.5666    1.7471   -0.5302 C.3     1  UNL1        0.0000
     30 H           3.8006    0.6992   -0.7346 H       1  UNL1        0.0000
     31 H           4.3085    2.1250    0.1721 H       1  UNL1        0.0000
     32 H           3.6637    2.2955   -1.4661 H       1  UNL1        0.0000
     33 C          -0.8296    4.8921    2.3627 C.2     1  UNL1        0.0000
     34 C          -0.1829    3.8506    3.1016 C.2     1  UNL1        0.0000
     35 C          -0.3666    7.2378    1.7347 C.2     1  UNL1        0.0000
     36 H           0.2854    8.1021    1.7329 H       1  UNL1        0.0000
     37 C          -1.6302    7.3099    1.2018 C.2     1  UNL1        0.0000
     38 H          -1.9786    8.2330    0.7617 H       1  UNL1        0.0000
     39 C           0.0645    6.0327    2.3151 C.2     1  UNL1        0.0000
     40 C           1.2590    5.6654    2.9900 C.2     1  UNL1        0.0000
     41 H           2.0804    6.3288    3.2240 H       1  UNL1        0.0000
     42 C          -2.4956    6.2034    1.2318 C.2     1  UNL1        0.0000
     43 H          -3.4868    6.3064    0.8133 H       1  UNL1        0.0000
     44 C          -2.1154    5.0108    1.7993 C.3     1  UNL1        0.0000
     45 H          -2.8224    4.1940    1.8743 H       1  UNL1        0.0000
@<TRIPOS>BOND
     1    23    21    1
     2    22    21    1
     3    24    21    1
     4    21    15    1
     5    32    29    1
     6    17    16    1
     7    30    29    1
     8    15    20    1
     9    15    12    2
    10    29    20    1
    11    29    31    1
    12    16    18    1
    13    16    12    1
    14    16    19    1
    15    20    13    2
    16    12    14    1
    17    38    37    1
    18    43    42    1
    19    37    42    2
    20    37    35    1
    21    42    44    1
    22    13    14    1
    23    13    25    1
    24    14     1    1
    25    36    35    1
    26    35    39    2
    27    44    45    1
    28    44    33    1
    29    26    25    1
    30    11     8    1
    31    39    33    1
    32    39    40    1
    33    33    34    2
    34    25    28    1
    35    25    27    1
    36    40    41    1
    37    40     2    2
    38    10     8    1
    39     8     1    1
    40     8     9    1
    41     1    34    1
    42     1     4    1
    43    34     2    1
    44     2     3    1
    45     6     4    1
    46     4     5    1
    47     4     7    1
