@<TRIPOS>MOLECULE
2,4,6,8,10,11,13,15,17,19
 28 30 0 0 0
SMALL
GASTEIGER

@<TRIPOS>ATOM
      1 SI          5.5339   -3.1501    5.6521 Si      1  UNL1        0.0000
      2 C           3.2202   -4.1764    4.2154 C.3     1  UNL1        0.0000
      3 H           3.6661   -5.1375    3.9821 H       1  UNL1        0.0000
      4 C           1.9548   -3.7209    3.7944 C.3     1  UNL1        0.0000
      5 H           1.2628   -4.2545    3.1535 H       1  UNL1        0.0000
      6 C           1.6747   -2.5242    4.4894 C.2     1  UNL1        0.0000
      7 H           0.7250   -2.0052    4.4860 H       1  UNL1        0.0000
      8 C           2.7711   -2.2342    5.3224 C.2     1  UNL1        0.0000
      9 H           2.8221   -1.4304    6.0495 H       1  UNL1        0.0000
     10 C           3.7171   -3.2807    5.1950 C.3     1  UNL1        0.0000
     11 C           6.1949   -2.6632    2.8375 C.2     1  UNL1        0.0000
     12 H           6.5329   -3.6702    2.6177 H       1  UNL1        0.0000
     13 C           6.0736   -1.6126    1.9098 C.2     1  UNL1        0.0000
     14 H           6.3293   -1.6592    0.8594 H       1  UNL1        0.0000
     15 C           5.7384   -0.4380    2.6170 C.3     1  UNL1        0.0000
     16 H           5.6770    0.5565    2.1910 H       1  UNL1        0.0000
     17 C           5.6668   -0.7647    3.9860 C.3     1  UNL1        0.0000
     18 H           5.5653   -0.0635    4.8080 H       1  UNL1        0.0000
     19 C           5.9913   -2.1372    4.1370 C.3     1  UNL1        0.0000
     20 C           6.1330   -2.6714    7.4079 C.3     1  UNL1        0.0000
     21 H           6.7121   -1.7585    7.5112 H       1  UNL1        0.0000
     22 H           5.3557   -2.6559    8.1671 H       1  UNL1        0.0000
     23 C           6.9916   -3.9482    7.4768 C.3     1  UNL1        0.0000
     24 H           8.0526   -3.7071    7.4555 H       1  UNL1        0.0000
     25 H           6.7978   -4.5355    8.3728 H       1  UNL1        0.0000
     26 C           6.5636   -4.6742    6.1879 C.3     1  UNL1        0.0000
     27 H           5.9818   -5.5687    6.3928 H       1  UNL1        0.0000
     28 H           7.4013   -4.9633    5.5600 H       1  UNL1        0.0000
@<TRIPOS>BOND
     1    14    13    1
     2    13    15    1
     3    13    11    2
     4    16    15    1
     5    15    17    1
     6    12    11    1
     7    11    19    1
     8     5     4    1
     9     4     2    1
    10     4     6    1
    11     3     2    1
    12    17    19    1
    13    17    18    1
    14    19     1    1
    15     2    10    1
    16     7     6    1
    17     6     8    2
    18    10     8    1
    19    10     1    1
    20     8     9    1
    21    28    26    1
    22     1    26    1
    23     1    20    1
    24    26    27    1
    25    26    23    1
    26    20    23    1
    27    20    21    1
    28    20    22    1
    29    24    23    1
    30    23    25    1
