@<TRIPOS>MOLECULE
2,4,6,8,9,11,13,15,17,18
 28 30 0 0 0
SMALL
GASTEIGER

@<TRIPOS>ATOM
      1 SI          1.3826    6.6721    0.8446 Si      1  UNL1        0.0000
      2 C           3.5902    9.2700    3.1088 C.2     1  UNL1        0.0000
      3 H           4.4809    9.8381    3.3514 H       1  UNL1        0.0000
      4 C           2.4080    9.2193    3.8782 C.2     1  UNL1        0.0000
      5 H           2.2360    9.7430    4.8115 H       1  UNL1        0.0000
      6 C           1.4496    8.4695    3.1593 C.3     1  UNL1        0.0000
      7 H           0.4115    8.3331    3.4454 H       1  UNL1        0.0000
      8 C           2.0178    8.0961    1.9095 C.3     1  UNL1        0.0000
      9 C           3.3644    8.5534    1.9114 C.3     1  UNL1        0.0000
     10 H           4.0534    8.4887    1.0752 H       1  UNL1        0.0000
     11 C           3.8073    4.3932    3.2273 C.2     1  UNL1        0.0000
     12 H           4.7449    3.9193    3.4941 H       1  UNL1        0.0000
     13 C           2.6248    4.3766    3.9979 C.2     1  UNL1        0.0000
     14 H           2.4998    3.8864    4.9565 H       1  UNL1        0.0000
     15 C           1.6038    5.0016    3.2469 C.3     1  UNL1        0.0000
     16 H           0.5576    5.0587    3.5306 H       1  UNL1        0.0000
     17 C           2.1369    5.3616    1.9775 C.3     1  UNL1        0.0000
     18 C           3.5194    5.0266    1.9972 C.3     1  UNL1        0.0000
     19 H           4.2005    5.1106    1.1563 H       1  UNL1        0.0000
     20 C          -0.4202    6.5624    0.2159 C.3     1  UNL1        0.0000
     21 H          -1.0334    5.7396    0.5698 H       1  UNL1        0.0000
     22 H          -0.9958    7.4763    0.3325 H       1  UNL1        0.0000
     23 C           0.0857    6.3717   -1.2279 C.3     1  UNL1        0.0000
     24 H          -0.1110    5.3615   -1.5788 H       1  UNL1        0.0000
     25 H          -0.3710    7.0684   -1.9275 H       1  UNL1        0.0000
     26 C           1.5990    6.6108   -1.0542 C.3     1  UNL1        0.0000
     27 H           1.9219    7.5451   -1.5046 H       1  UNL1        0.0000
     28 H           2.2110    5.8161   -1.4691 H       1  UNL1        0.0000
@<TRIPOS>BOND
     1    25    23    1
     2    24    23    1
     3    27    26    1
     4    28    26    1
     5    23    26    1
     6    23    20    1
     7    26     1    1
     8    20    22    1
     9    20    21    1
    10    20     1    1
    11     1     8    1
    12     1    17    1
    13    10     9    1
    14    19    18    1
    15     8     9    1
    16     8     6    1
    17     9     2    1
    18    17    18    1
    19    17    15    1
    20    18    11    1
    21     2     3    1
    22     2     4    2
    23     6     7    1
    24     6     4    1
    25    11    12    1
    26    11    13    2
    27    15    16    1
    28    15    13    1
    29     4     5    1
    30    13    14    1
