@<TRIPOS>MOLECULE
2,4,5,6,14,56,58,59,60,75
 102 108 0 0 0
SMALL
GASTEIGER

@<TRIPOS>ATOM
      1 SI          6.3309    5.5556    4.5023 Si      1  UNL1        0.0000
      2 C           3.4645    6.9220    7.1318 C.3     1  UNL1        0.0000
      3 H           2.5196    6.8818    7.6593 H       1  UNL1        0.0000
      4 C           4.0334    5.8784    6.3656 C.3     1  UNL1        0.0000
      5 C           5.3767    6.2207    6.0052 C.3     1  UNL1        0.0000
      6 C           5.6371    7.5096    6.5951 C.ar    1  UNL1        0.0000
      7 C           6.8034    8.2918    6.6914 C.ar    1  UNL1        0.0000
      8 H           7.7252    7.9597    6.2378 H       1  UNL1        0.0000
      9 C           6.7811    9.4428    7.4425 C.ar    1  UNL1        0.0000
     10 H           7.6767   10.0405    7.5283 H       1  UNL1        0.0000
     11 C           5.6244    9.8624    8.1115 C.ar    1  UNL1        0.0000
     12 H           5.6480   10.7823    8.6761 H       1  UNL1        0.0000
     13 C           4.4524    9.1368    8.0525 C.ar    1  UNL1        0.0000
     14 C           4.4518    7.9386    7.2991 C.ar    1  UNL1        0.0000
     15 C           3.2341    9.5817    8.7425 C.ar    1  UNL1        0.0000
     16 C           2.0133    9.6063    8.0755 C.ar    1  UNL1        0.0000
     17 H           1.9679    9.3288    7.0272 H       1  UNL1        0.0000
     18 C           0.8634   10.0206    8.7234 C.ar    1  UNL1        0.0000
     19 H          -0.0565   10.0271    8.1622 H       1  UNL1        0.0000
     20 C           0.8858   10.4179   10.0556 C.ar    1  UNL1        0.0000
     21 C           2.1158   10.4028   10.7099 C.ar    1  UNL1        0.0000
     22 H           2.1829   10.7094   11.7433 H       1  UNL1        0.0000
     23 C           3.2694    9.9989   10.0695 C.ar    1  UNL1        0.0000
     24 H           4.2073    9.9855   10.6061 H       1  UNL1        0.0000
     25 C           3.3796    4.5299    6.1969 C.3     1  UNL1        0.0000
     26 H           3.8595    3.9962    5.3735 H       1  UNL1        0.0000
     27 C           1.8851    4.6559    5.8935 C.3     1  UNL1        0.0000
     28 H           1.7172    5.3192    5.0420 H       1  UNL1        0.0000
     29 H           1.3473    5.0533    6.7513 H       1  UNL1        0.0000
     30 H           1.4702    3.6768    5.6619 H       1  UNL1        0.0000
     31 C           3.6036    3.7116    7.4759 C.3     1  UNL1        0.0000
     32 H           4.6677    3.6002    7.6693 H       1  UNL1        0.0000
     33 H           3.1611    2.7231    7.3763 H       1  UNL1        0.0000
     34 H           3.1500    4.2116    8.3283 H       1  UNL1        0.0000
     35 C          -0.3569   10.8596   10.8125 C.3     1  UNL1        0.0000
     36 C          -1.6195   10.8213    9.9475 C.3     1  UNL1        0.0000
     37 H          -1.5290   11.4894    9.0945 H       1  UNL1        0.0000
     38 H          -2.4741   11.1446   10.5389 H       1  UNL1        0.0000
     39 H          -1.8194    9.8135    9.5912 H       1  UNL1        0.0000
     40 C          -0.5695    9.9233   12.0110 C.3     1  UNL1        0.0000
     41 H          -0.6906    8.8973   11.6692 H       1  UNL1        0.0000
     42 H          -1.4639   10.2126   12.5590 H       1  UNL1        0.0000
     43 H           0.2741    9.9566   12.6949 H       1  UNL1        0.0000
     44 C          -0.1590   12.2994   11.3070 C.3     1  UNL1        0.0000
     45 H           0.0202   12.9638   10.4644 H       1  UNL1        0.0000
     46 H           0.6869   12.3735   11.9847 H       1  UNL1        0.0000
     47 H          -1.0479   12.6406   11.8337 H       1  UNL1        0.0000
     48 C           6.3304    3.6581    4.2600 C.3     1  UNL1        0.0000
     49 H           6.8403    3.1844    5.0926 H       1  UNL1        0.0000
     50 H           6.8815    3.4121    3.3584 H       1  UNL1        0.0000
     51 H           5.3548    3.1979    4.1749 H       1  UNL1        0.0000
     52 C           8.2055    5.9277    4.5013 C.3     1  UNL1        0.0000
     53 H           8.4580    6.9793    4.4825 H       1  UNL1        0.0000
     54 H           8.6665    5.4674    3.6333 H       1  UNL1        0.0000
     55 H           8.6668    5.4914    5.3814 H       1  UNL1        0.0000
     56 C           4.3036    8.4798    2.4140 C.2     1  UNL1        0.0000
     57 H           4.1779    9.4866    2.0344 H       1  UNL1        0.0000
     58 C           5.4792    7.9607    2.9847 C.2     1  UNL1        0.0000
     59 C           5.3081    6.5660    3.2660 C.3     1  UNL1        0.0000
     60 C           3.9634    6.2365    2.8569 C.ar    1  UNL1        0.0000
     61 C           3.2514    5.0182    2.8064 C.ar    1  UNL1        0.0000
     62 H           3.7117    4.0889    3.1075 H       1  UNL1        0.0000
     63 C           1.9821    5.0286    2.2887 C.ar    1  UNL1        0.0000
     64 C           1.0445    3.8660    2.1293 C.3     1  UNL1        0.0000
     65 H           0.5392    3.6694    3.0794 H       1  UNL1        0.0000
     66 H           1.5547    2.9528    1.8224 H       1  UNL1        0.0000
     67 C           0.0403    4.3659    1.0819 C.3     1  UNL1        0.0000
     68 H          -0.9409    3.9064    1.1919 H       1  UNL1        0.0000
     69 H           0.4148    4.1380    0.0824 H       1  UNL1        0.0000
     70 C           0.0022    5.8876    1.2776 C.3     1  UNL1        0.0000
     71 H          -0.2412    6.4293    0.3637 H       1  UNL1        0.0000
     72 H          -0.7378    6.1555    2.0368 H       1  UNL1        0.0000
     73 C           1.3781    6.2020    1.7889 C.ar    1  UNL1        0.0000
     74 C           2.0480    7.4029    1.7543 C.ar    1  UNL1        0.0000
     75 C           3.3543    7.4262    2.3045 C.ar    1  UNL1        0.0000
     76 C           1.4795    8.6143    1.1374 C.ar    1  UNL1        0.0000
     77 C           2.1421    9.2445    0.0913 C.ar    1  UNL1        0.0000
     78 H           3.0772    8.8369   -0.2667 H       1  UNL1        0.0000
     79 C           1.6073   10.3675   -0.5132 C.ar    1  UNL1        0.0000
     80 H           2.1547   10.8151   -1.3270 H       1  UNL1        0.0000
     81 C           0.3988   10.9071   -0.0898 C.ar    1  UNL1        0.0000
     82 C          -0.2505   10.2759    0.9690 C.ar    1  UNL1        0.0000
     83 H          -1.1872   10.6663    1.3378 H       1  UNL1        0.0000
     84 C           0.2720    9.1490    1.5713 C.ar    1  UNL1        0.0000
     85 H          -0.2432    8.6895    2.4013 H       1  UNL1        0.0000
     86 C          -0.2283   12.1356   -0.7302 C.3     1  UNL1        0.0000
     87 C          -1.6041   11.7558   -1.2960 C.3     1  UNL1        0.0000
     88 H          -1.4999   10.9699   -2.0415 H       1  UNL1        0.0000
     89 H          -2.0674   12.6200   -1.7678 H       1  UNL1        0.0000
     90 H          -2.2684   11.3976   -0.5146 H       1  UNL1        0.0000
     91 C          -0.3872   13.2303    0.3341 C.3     1  UNL1        0.0000
     92 H           0.5816   13.4839    0.7593 H       1  UNL1        0.0000
     93 H          -1.0376   12.9064    1.1416 H       1  UNL1        0.0000
     94 H          -0.8155   14.1266   -0.1102 H       1  UNL1        0.0000
     95 C           0.6166   12.7026   -1.8745 C.3     1  UNL1        0.0000
     96 H           1.5970   13.0127   -1.5205 H       1  UNL1        0.0000
     97 H           0.1197   13.5755   -2.2937 H       1  UNL1        0.0000
     98 H           0.7389   11.9719   -2.6709 H       1  UNL1        0.0000
     99 C           6.7228    8.7800    3.1844 C.3     1  UNL1        0.0000
    100 H           7.5933    8.2655    2.7789 H       1  UNL1        0.0000
    101 H           6.8956    8.9931    4.2434 H       1  UNL1        0.0000
    102 H           6.6165    9.7345    2.6700 H       1  UNL1        0.0000
@<TRIPOS>BOND
     1    98    95    1
     2    97    95    1
     3    88    87    1
     4    95    96    1
     5    95    86    1
     6    89    87    1
     7    80    79    1
     8    87    86    1
     9    87    90    1
    10    86    81    1
    11    86    91    1
    12    79    81   ar
    13    79    77   ar
    14    78    77    1
    15    94    91    1
    16    81    82   ar
    17    69    67    1
    18    77    76   ar
    19    91    92    1
    20    91    93    1
    21    71    70    1
    22    82    83    1
    23    82    84   ar
    24    67    68    1
    25    67    70    1
    26    67    64    1
    27    76    84   ar
    28    76    74    1
    29    70    73    1
    30    70    72    1
    31    84    85    1
    32    74    73   ar
    33    74    75   ar
    34    73    63   ar
    35    66    64    1
    36    57    56    1
    37    64    63    1
    38    64    65    1
    39    63    61   ar
    40    75    56    1
    41    75    60   ar
    42    56    58    2
    43   102    99    1
    44   100    99    1
    45    61    60   ar
    46    61    62    1
    47    60    59    1
    48    58    99    1
    49    58    59    1
    50    99   101    1
    51    59     1    1
    52    50    48    1
    53    54    52    1
    54    51    48    1
    55    48     1    1
    56    48    49    1
    57    53    52    1
    58    52     1    1
    59    52    55    1
    60     1     5    1
    61    28    27    1
    62    26    25    1
    63    30    27    1
    64    27    25    1
    65    27    29    1
    66     5     4    1
    67     5     6    1
    68    25     4    1
    69    25    31    1
    70     8     7    1
    71     4     2    1
    72     6     7   ar
    73     6    14   ar
    74     7     9   ar
    75    17    16    1
    76     2    14    1
    77     2     3    1
    78    14    13   ar
    79    33    31    1
    80     9    10    1
    81     9    11   ar
    82    31    32    1
    83    31    34    1
    84    13    11   ar
    85    13    15    1
    86    16    18   ar
    87    16    15   ar
    88    11    12    1
    89    19    18    1
    90    18    20   ar
    91    15    23   ar
    92    37    36    1
    93    39    36    1
    94    36    38    1
    95    36    35    1
    96    20    21   ar
    97    20    35    1
    98    23    24    1
    99    23    21   ar
   100    45    44    1
   101    21    22    1
   102    35    44    1
   103    35    40    1
   104    44    47    1
   105    44    46    1
   106    41    40    1
   107    40    42    1
   108    40    43    1
