@<TRIPOS>MOLECULE
4,5,7,8,9,35,36,37,38,39
 63 66 0 0 0
SMALL
GASTEIGER

@<TRIPOS>ATOM
      1 SI          5.5445   12.2544   18.2060 Si      1  UNL1        0.0000
      2 O           7.7498    7.4706   12.7858 O.3     1  UNL1        0.0000
      3 O           9.9321    7.7655   13.5348 O.3     1  UNL1        0.0000
      4 C           7.0917   11.1662   18.1884 C.2     1  UNL1        0.0000
      5 C           7.5146   10.5650   16.9675 C.2     1  UNL1        0.0000
      6 H           7.3800   11.0169   15.9939 H       1  UNL1        0.0000
      7 C           8.2764    9.4071   17.2079 C.2     1  UNL1        0.0000
      8 C           8.3698    9.2575   18.6307 C.2     1  UNL1        0.0000
      9 C           7.6325   10.3519   19.2374 C.3     1  UNL1        0.0000
     10 C           7.6224   10.4767   20.6396 C.2     1  UNL1        0.0000
     11 H           7.1182   11.3114   21.1068 H       1  UNL1        0.0000
     12 C           8.2924    9.5506   21.3995 C.2     1  UNL1        0.0000
     13 H           8.2937    9.6410   22.4754 H       1  UNL1        0.0000
     14 C           8.9791    8.4746   20.8107 C.2     1  UNL1        0.0000
     15 H           9.4802    7.7641   21.4508 H       1  UNL1        0.0000
     16 C           9.0272    8.3180   19.4480 C.2     1  UNL1        0.0000
     17 H           9.5787    7.4997   19.0024 H       1  UNL1        0.0000
     18 C           8.9359    8.5503   16.1630 C.3     1  UNL1        0.0000
     19 H           9.0350    7.5274   16.5400 H       1  UNL1        0.0000
     20 H           9.9419    8.9185   15.9354 H       1  UNL1        0.0000
     21 C           8.1138    8.5273   14.8719 C.3     1  UNL1        0.0000
     22 H           7.0657    8.2939   15.0989 H       1  UNL1        0.0000
     23 H           8.1753    9.4866   14.3567 H       1  UNL1        0.0000
     24 C           8.6098    7.4671   13.8967 C.3     1  UNL1        0.0000
     25 H           8.5822    6.4599   14.3683 H       1  UNL1        0.0000
     26 C           8.1362    6.5107   11.8222 C.3     1  UNL1        0.0000
     27 H           7.4264    6.6092   10.9994 H       1  UNL1        0.0000
     28 H           8.0518    5.5013   12.2555 H       1  UNL1        0.0000
     29 C           9.5745    6.7600   11.3654 C.3     1  UNL1        0.0000
     30 H           9.6248    7.7183   10.8466 H       1  UNL1        0.0000
     31 H           9.9107    5.9675   10.6985 H       1  UNL1        0.0000
     32 C          10.4488    6.8219   12.6189 C.3     1  UNL1        0.0000
     33 H          10.4872    5.8289   13.0956 H       1  UNL1        0.0000
     34 H          11.4639    7.1501   12.3899 H       1  UNL1        0.0000
     35 C           4.3849   10.8319   17.7019 C.3     1  UNL1        0.0000
     36 C           4.4891   10.1421   16.4472 C.2     1  UNL1        0.0000
     37 C           3.9579    8.8371   16.6022 C.2     1  UNL1        0.0000
     38 C           3.5346    8.6903   17.9571 C.3     1  UNL1        0.0000
     39 C           3.7964    9.9130   18.6297 C.3     1  UNL1        0.0000
     40 C           4.8043   10.7440   15.1048 C.3     1  UNL1        0.0000
     41 H           3.8843   10.8248   14.5209 H       1  UNL1        0.0000
     42 H           5.4961   10.1235   14.5311 H       1  UNL1        0.0000
     43 H           5.2177   11.7424   15.2061 H       1  UNL1        0.0000
     44 C           3.7200    7.8460   15.4985 C.3     1  UNL1        0.0000
     45 H           4.4655    7.9451   14.7088 H       1  UNL1        0.0000
     46 H           2.7342    8.0074   15.0553 H       1  UNL1        0.0000
     47 H           3.7569    6.8258   15.8781 H       1  UNL1        0.0000
     48 C           2.9040    7.4505   18.5271 C.3     1  UNL1        0.0000
     49 H           3.4896    6.5691   18.2501 H       1  UNL1        0.0000
     50 H           1.8892    7.3190   18.1449 H       1  UNL1        0.0000
     51 H           2.8672    7.4993   19.6140 H       1  UNL1        0.0000
     52 C           3.3923   10.2377   20.0413 C.3     1  UNL1        0.0000
     53 H           2.5546    9.6114   20.3448 H       1  UNL1        0.0000
     54 H           3.0784   11.2773   20.1089 H       1  UNL1        0.0000
     55 H           4.2097   10.0644   20.7473 H       1  UNL1        0.0000
     56 C           5.6582   13.6787   16.9335 C.3     1  UNL1        0.0000
     57 H           5.9737   14.5884   17.4323 H       1  UNL1        0.0000
     58 H           4.6966   13.8788   16.4728 H       1  UNL1        0.0000
     59 H           6.3761   13.4831   16.1444 H       1  UNL1        0.0000
     60 C           5.1893   13.0847   19.8849 C.3     1  UNL1        0.0000
     61 H           4.2587   13.6408   19.8426 H       1  UNL1        0.0000
     62 H           5.9794   13.7936   20.1105 H       1  UNL1        0.0000
     63 H           5.1240   12.3855   20.7091 H       1  UNL1        0.0000
@<TRIPOS>BOND
     1    31    29    1
     2    30    29    1
     3    27    26    1
     4    29    26    1
     5    29    32    1
     6    26    28    1
     7    26     2    1
     8    34    32    1
     9    32    33    1
    10    32     3    1
    11     2    24    1
    12     3    24    1
    13    24    25    1
    14    24    21    1
    15    23    21    1
    16    41    40    1
    17    42    40    1
    18    45    44    1
    19    21    22    1
    20    21    18    1
    21    46    44    1
    22    40    43    1
    23    40    36    1
    24    44    47    1
    25    44    37    1
    26    20    18    1
    27     6     5    1
    28    59    56    1
    29    18    19    1
    30    18     7    1
    31    36    37    2
    32    36    35    1
    33    58    56    1
    34    37    38    1
    35    56    57    1
    36    56     1    1
    37     5     7    1
    38     5     4    2
    39     7     8    2
    40    35     1    1
    41    35    39    1
    42    38    48    1
    43    38    39    1
    44    50    48    1
    45     4     1    1
    46     4     9    1
    47     1    60    1
    48    49    48    1
    49    48    51    1
    50    39    52    1
    51     8     9    1
    52     8    16    1
    53    17    16    1
    54     9    10    1
    55    16    14    2
    56    61    60    1
    57    60    62    1
    58    60    63    1
    59    52    54    1
    60    52    53    1
    61    52    55    1
    62    10    11    1
    63    10    12    2
    64    14    12    1
    65    14    15    1
    66    12    13    1
