@<TRIPOS>MOLECULE
2,3,4,5,6,7,8,10,11,13
 79 84 0 0 0
SMALL
GASTEIGER

@<TRIPOS>ATOM
      1 SI          3.5008    3.1749    8.9108 Si      1  UNL1        0.0000
      2 C           4.9098    2.7489   10.1252 C.3     1  UNL1        0.0000
      3 C           5.7751    3.7208   10.7196 C.3     1  UNL1        0.0000
      4 C           7.0343    3.1047   11.0235 C.3     1  UNL1        0.0000
      5 C           6.9629    1.7541   10.5669 C.2     1  UNL1        0.0000
      6 C           5.6548    1.5307   10.0463 C.2     1  UNL1        0.0000
      7 C           4.6416    4.0449    7.6844 C.3     1  UNL1        0.0000
      8 C           5.3149    3.4021    6.6057 C.2     1  UNL1        0.0000
      9 H           4.9715    2.4976    6.1186 H       1  UNL1        0.0000
     10 C           6.3971    4.2118    6.1868 C.2     1  UNL1        0.0000
     11 C           6.4194    5.3487    7.0365 C.2     1  UNL1        0.0000
     12 H           7.0687    6.2089    6.9293 H       1  UNL1        0.0000
     13 C           5.3562    5.2452    7.9530 C.2     1  UNL1        0.0000
     14 H           5.0289    6.0320    8.6206 H       1  UNL1        0.0000
     15 C           2.0990    4.2880    9.5637 C.3     1  UNL1        0.0000
     16 H           2.4448    5.2843    9.8148 H       1  UNL1        0.0000
     17 H           1.6279    3.8631   10.4435 H       1  UNL1        0.0000
     18 H           1.3344    4.3857    8.8005 H       1  UNL1        0.0000
     19 C           2.7393    1.6794    8.0049 C.3     1  UNL1        0.0000
     20 H           2.2085    2.0234    7.1224 H       1  UNL1        0.0000
     21 H           2.0270    1.1503    8.6264 H       1  UNL1        0.0000
     22 H           3.4915    0.9642    7.6859 H       1  UNL1        0.0000
     23 C           7.2770    4.0331    4.9652 C.3     1  UNL1        0.0000
     24 C           7.0321    5.2158    4.0138 C.3     1  UNL1        0.0000
     25 H           5.9789    5.2749    3.7480 H       1  UNL1        0.0000
     26 H           7.6129    5.0898    3.1027 H       1  UNL1        0.0000
     27 H           7.3219    6.1550    4.4776 H       1  UNL1        0.0000
     28 C           6.9455    2.7315    4.2288 C.3     1  UNL1        0.0000
     29 H           7.0962    1.8718    4.8776 H       1  UNL1        0.0000
     30 H           7.5961    2.6232    3.3636 H       1  UNL1        0.0000
     31 H           5.9153    2.7384    3.8791 H       1  UNL1        0.0000
     32 C           8.7540    4.0143    5.3847 C.3     1  UNL1        0.0000
     33 H           9.0259    4.9332    5.9024 H       1  UNL1        0.0000
     34 H           9.3903    3.9173    4.5069 H       1  UNL1        0.0000
     35 H           8.9519    3.1694    6.0470 H       1  UNL1        0.0000
     36 C           5.4733    5.1091   11.0783 C.ar    1  UNL1        0.0000
     37 C           4.2882    5.4508   11.7271 C.ar    1  UNL1        0.0000
     38 H           3.5764    4.6746   11.9640 H       1  UNL1        0.0000
     39 C           4.0413    6.7621   12.0924 C.ar    1  UNL1        0.0000
     40 H           3.1183    7.0138   12.5940 H       1  UNL1        0.0000
     41 C           4.9773    7.7475   11.8288 C.ar    1  UNL1        0.0000
     42 H           4.7844    8.7695   12.1181 H       1  UNL1        0.0000
     43 C           6.1685    7.4159   11.1999 C.ar    1  UNL1        0.0000
     44 H           6.9033    8.1812   10.9993 H       1  UNL1        0.0000
     45 C           6.4188    6.1104   10.8241 C.ar    1  UNL1        0.0000
     46 H           7.3511    5.8559   10.3251 H       1  UNL1        0.0000
     47 C           8.0060    3.6411   11.9937 C.ar    1  UNL1        0.0000
     48 C           7.5169    4.2504   13.1526 C.ar    1  UNL1        0.0000
     49 H           6.4508    4.3209   13.3090 H       1  UNL1        0.0000
     50 C           8.3779    4.7473   14.1110 C.ar    1  UNL1        0.0000
     51 H           7.9761    5.2176   14.9967 H       1  UNL1        0.0000
     52 C           9.7478    4.6379   13.9420 C.ar    1  UNL1        0.0000
     53 H          10.4218    5.0291   14.6895 H       1  UNL1        0.0000
     54 C          10.2445    4.0167   12.8096 C.ar    1  UNL1        0.0000
     55 H          11.3111    3.9199   12.6706 H       1  UNL1        0.0000
     56 C           9.3865    3.5204   11.8451 C.ar    1  UNL1        0.0000
     57 H           9.8002    3.0569   10.9647 H       1  UNL1        0.0000
     58 C           7.9748    0.7062   10.7963 C.ar    1  UNL1        0.0000
     59 C           9.2023    0.7407   10.1370 C.ar    1  UNL1        0.0000
     60 H           9.4132    1.5350    9.4269 H       1  UNL1        0.0000
     61 C          10.1372   -0.2552   10.3551 C.ar    1  UNL1        0.0000
     62 H          11.0838   -0.2236    9.8359 H       1  UNL1        0.0000
     63 C           9.8599   -1.2934   11.2285 C.ar    1  UNL1        0.0000
     64 H          10.5913   -2.0703   11.3948 H       1  UNL1        0.0000
     65 C           8.6405   -1.3362   11.8830 C.ar    1  UNL1        0.0000
     66 H           8.4189   -2.1459   12.5626 H       1  UNL1        0.0000
     67 C           7.7020   -0.3441   11.6687 C.ar    1  UNL1        0.0000
     68 H           6.7496   -0.3754   12.1779 H       1  UNL1        0.0000
     69 C           5.0801    0.2054    9.7970 C.ar    1  UNL1        0.0000
     70 C           5.7731   -0.8132    9.1425 C.ar    1  UNL1        0.0000
     71 H           6.7520   -0.6228    8.7310 H       1  UNL1        0.0000
     72 C           5.2061   -2.0660    9.0005 C.ar    1  UNL1        0.0000
     73 H           5.7527   -2.8407    8.4832 H       1  UNL1        0.0000
     74 C           3.9488   -2.3328    9.5160 C.ar    1  UNL1        0.0000
     75 H           3.5116   -3.3139    9.4039 H       1  UNL1        0.0000
     76 C           3.2599   -1.3354   10.1858 C.ar    1  UNL1        0.0000
     77 H           2.2855   -1.5393   10.6060 H       1  UNL1        0.0000
     78 C           3.8209   -0.0818   10.3302 C.ar    1  UNL1        0.0000
     79 H           3.2951    0.6880   10.8769 H       1  UNL1        0.0000
@<TRIPOS>BOND
     1    26    24    1
     2    30    28    1
     3    25    24    1
     4    31    28    1
     5    24    27    1
     6    24    23    1
     7    28    29    1
     8    28    23    1
     9    34    32    1
    10    23    32    1
    11    23    10    1
    12    32    33    1
    13    32    35    1
    14     9     8    1
    15    10     8    2
    16    10    11    1
    17     8     7    1
    18    12    11    1
    19    11    13    2
    20    20    19    1
    21     7    13    1
    22     7     1    1
    23    22    19    1
    24    13    14    1
    25    19    21    1
    26    19     1    1
    27    73    72    1
    28    71    70    1
    29    18    15    1
    30     1    15    1
    31     1     2    1
    32    72    70   ar
    33    72    74   ar
    34    70    69   ar
    35    75    74    1
    36    60    59    1
    37    74    76   ar
    38    15    16    1
    39    15    17    1
    40    69     6    1
    41    69    78   ar
    42    62    61    1
    43     6     2    1
    44     6     5    2
    45     2     3    1
    46    59    61   ar
    47    59    58   ar
    48    76    78   ar
    49    76    77    1
    50    46    45    1
    51    78    79    1
    52    61    63   ar
    53     5    58    1
    54     5     4    1
    55     3     4    1
    56     3    36    1
    57    58    67   ar
    58    45    36   ar
    59    45    43   ar
    60    57    56    1
    61    44    43    1
    62     4    47    1
    63    36    37   ar
    64    43    41   ar
    65    63    64    1
    66    63    65   ar
    67    67    65   ar
    68    67    68    1
    69    37    38    1
    70    37    39   ar
    71    41    39   ar
    72    41    42    1
    73    56    47   ar
    74    56    54   ar
    75    65    66    1
    76    47    48   ar
    77    39    40    1
    78    55    54    1
    79    54    52   ar
    80    48    49    1
    81    48    50   ar
    82    52    50   ar
    83    52    53    1
    84    50    51    1
