@<TRIPOS>MOLECULE
2,3,4,5,6,7,8,10,12,14
 67 72 0 0 0
SMALL
GASTEIGER

@<TRIPOS>ATOM
      1 SI          2.1700    5.2257    2.4712 Si      1  UNL1        0.0000
      2 C           2.6911    6.3515    3.9134 C.3     1  UNL1        0.0000
      3 C           2.7763    7.7685    3.7860 C.3     1  UNL1        0.0000
      4 C           3.6738    8.2720    4.7725 C.3     1  UNL1        0.0000
      5 C           4.2168    7.1404    5.4712 C.3     1  UNL1        0.0000
      6 C           3.6155    5.9641    4.9310 C.3     1  UNL1        0.0000
      7 C           3.8636    5.3810    1.6492 C.3     1  UNL1        0.0000
      8 C           4.2955    6.4779    0.8530 C.2     1  UNL1        0.0000
      9 H           3.6438    7.1309    0.2845 H       1  UNL1        0.0000
     10 C           5.7010    6.4167    0.7305 C.2     1  UNL1        0.0000
     11 H           6.3125    7.0520    0.1013 H       1  UNL1        0.0000
     12 C           6.1557    5.3129    1.4769 C.2     1  UNL1        0.0000
     13 H           7.1773    4.9574    1.5238 H       1  UNL1        0.0000
     14 C           5.0363    4.6943    2.0726 C.2     1  UNL1        0.0000
     15 H           5.0534    3.7594    2.6218 H       1  UNL1        0.0000
     16 C           0.7656    5.9288    1.3930 C.3     1  UNL1        0.0000
     17 H           1.0185    6.8805    0.9401 H       1  UNL1        0.0000
     18 H          -0.1384    6.0736    1.9740 H       1  UNL1        0.0000
     19 H           0.5341    5.2317    0.5948 H       1  UNL1        0.0000
     20 C           1.7540    3.4149    2.8882 C.3     1  UNL1        0.0000
     21 H           1.5488    2.8732    1.9708 H       1  UNL1        0.0000
     22 H           0.8699    3.3463    3.5118 H       1  UNL1        0.0000
     23 H           2.5615    2.9050    3.4007 H       1  UNL1        0.0000
     24 C           1.9109    8.5910    2.9189 C.ar    1  UNL1        0.0000
     25 C           0.5558    8.7165    3.2101 C.ar    1  UNL1        0.0000
     26 H           0.1550    8.2128    4.0772 H       1  UNL1        0.0000
     27 C          -0.2659    9.4833    2.4040 C.ar    1  UNL1        0.0000
     28 H          -1.3154    9.5777    2.6409 H       1  UNL1        0.0000
     29 C           0.2546   10.1313    1.2968 C.ar    1  UNL1        0.0000
     30 H          -0.3872   10.7292    0.6674 H       1  UNL1        0.0000
     31 C           1.6027   10.0133    1.0001 C.ar    1  UNL1        0.0000
     32 H           2.0119   10.5200    0.1384 H       1  UNL1        0.0000
     33 C           2.4294    9.2485    1.8044 C.ar    1  UNL1        0.0000
     34 H           3.4876    9.1609    1.5732 H       1  UNL1        0.0000
     35 C           3.7217    9.6608    5.2623 C.ar    1  UNL1        0.0000
     36 C           3.5951    9.8885    6.6354 C.ar    1  UNL1        0.0000
     37 H           3.4901    9.0489    7.3068 H       1  UNL1        0.0000
     38 C           3.5897   11.1733    7.1417 C.ar    1  UNL1        0.0000
     39 H           3.4940   11.3272    8.2066 H       1  UNL1        0.0000
     40 C           3.7002   12.2593    6.2894 C.ar    1  UNL1        0.0000
     41 H           3.6984   13.2641    6.6855 H       1  UNL1        0.0000
     42 C           3.8091   12.0465    4.9263 C.ar    1  UNL1        0.0000
     43 H           3.8933   12.8872    4.2536 H       1  UNL1        0.0000
     44 C           3.8170   10.7619    4.4131 C.ar    1  UNL1        0.0000
     45 H           3.9253   10.6186    3.3502 H       1  UNL1        0.0000
     46 C           5.1948    7.2329    6.5615 C.ar    1  UNL1        0.0000
     47 C           5.1392    6.3990    7.6768 C.ar    1  UNL1        0.0000
     48 H           4.3502    5.6655    7.7580 H       1  UNL1        0.0000
     49 C           6.0808    6.5149    8.6833 C.ar    1  UNL1        0.0000
     50 H           6.0283    5.8600    9.5408 H       1  UNL1        0.0000
     51 C           7.0839    7.4641    8.5955 C.ar    1  UNL1        0.0000
     52 H           7.8194    7.5496    9.3814 H       1  UNL1        0.0000
     53 C           7.1429    8.3043    7.4941 C.ar    1  UNL1        0.0000
     54 H           7.9267    9.0434    7.4202 H       1  UNL1        0.0000
     55 C           6.2096    8.1937    6.4831 C.ar    1  UNL1        0.0000
     56 H           6.2690    8.8444    5.6149 H       1  UNL1        0.0000
     57 C           3.8017    4.5910    5.4264 C.ar    1  UNL1        0.0000
     58 C           5.0628    3.9941    5.4664 C.ar    1  UNL1        0.0000
     59 H           5.9317    4.5444    5.1226 H       1  UNL1        0.0000
     60 C           5.2071    2.7079    5.9554 C.ar    1  UNL1        0.0000
     61 H           6.1865    2.2540    5.9804 H       1  UNL1        0.0000
     62 C           4.1052    2.0021    6.4119 C.ar    1  UNL1        0.0000
     63 H           4.2241    0.9989    6.7929 H       1  UNL1        0.0000
     64 C           2.8523    2.5913    6.3841 C.ar    1  UNL1        0.0000
     65 H           1.9913    2.0495    6.7472 H       1  UNL1        0.0000
     66 C           2.7003    3.8761    5.8959 C.ar    1  UNL1        0.0000
     67 H           1.7270    4.3443    5.8836 H       1  UNL1        0.0000
@<TRIPOS>BOND
     1    11    10    1
     2    32    31    1
     3     9     8    1
     4    19    16    1
     5    30    29    1
     6    10     8    2
     7    10    12    1
     8     8     7    1
     9    17    16    1
    10    31    29   ar
    11    31    33   ar
    12    29    27   ar
    13    16    18    1
    14    16     1    1
    15    12    13    1
    16    12    14    2
    17    34    33    1
    18     7    14    1
    19     7     1    1
    20    33    24   ar
    21    21    20    1
    22    14    15    1
    23    27    28    1
    24    27    25   ar
    25     1    20    1
    26     1     2    1
    27    20    23    1
    28    20    22    1
    29    24    25   ar
    30    24     3    1
    31    25    26    1
    32    45    44    1
    33     3     2    1
    34     3     4    1
    35     2     6    1
    36    43    42    1
    37    44    42   ar
    38    44    35   ar
    39     4    35    1
    40     4     5    1
    41    42    40   ar
    42     6    57    1
    43     6     5    1
    44    59    58    1
    45    35    36   ar
    46    57    58   ar
    47    57    66   ar
    48    58    60   ar
    49     5    46    1
    50    56    55    1
    51    67    66    1
    52    66    64   ar
    53    60    61    1
    54    60    62   ar
    55    40    41    1
    56    40    38   ar
    57    64    62   ar
    58    64    65    1
    59    62    63    1
    60    55    46   ar
    61    55    53   ar
    62    46    47   ar
    63    36    38   ar
    64    36    37    1
    65    38    39    1
    66    54    53    1
    67    53    51   ar
    68    47    48    1
    69    47    49   ar
    70    51    49   ar
    71    51    52    1
    72    49    50    1
