@<TRIPOS>MOLECULE
2,3,5,6,7,17,18,20,21,22
 39 40 0 0 0
SMALL
GASTEIGER

@<TRIPOS>ATOM
      1 SI          2.0751   -0.9362    5.1121 Si      1  UNL1        0.0000
      2 C           1.3050    0.6952    4.5323 C.3     1  UNL1        0.0000
      3 C           0.6426    1.6218    5.3959 C.3     1  UNL1        0.0000
      4 H          -0.0005    1.3725    6.2292 H       1  UNL1        0.0000
      5 C           0.7133    2.9242    4.7694 C.3     1  UNL1        0.0000
      6 C           1.3743    2.7721    3.5052 C.2     1  UNL1        0.0000
      7 C           1.8030    1.4403    3.4070 C.2     1  UNL1        0.0000
      8 H           2.2711    1.0044    2.5342 H       1  UNL1        0.0000
      9 C          -0.0644    4.1429    5.1745 C.3     1  UNL1        0.0000
     10 H          -0.9774    4.2253    4.5811 H       1  UNL1        0.0000
     11 H           0.5343    5.0418    5.0200 H       1  UNL1        0.0000
     12 H          -0.3304    4.0869    6.2282 H       1  UNL1        0.0000
     13 C           1.5141    3.8369    2.4671 C.3     1  UNL1        0.0000
     14 H           0.5345    4.2459    2.2198 H       1  UNL1        0.0000
     15 H           1.9719    3.4355    1.5657 H       1  UNL1        0.0000
     16 H           2.1380    4.6523    2.8380 H       1  UNL1        0.0000
     17 C           3.5770    0.0719    5.6774 C.3     1  UNL1        0.0000
     18 C           3.6421    0.8027    6.9042 C.3     1  UNL1        0.0000
     19 H           3.2348    0.4919    7.8569 H       1  UNL1        0.0000
     20 C           4.6175    1.8574    6.7285 C.3     1  UNL1        0.0000
     21 C           5.1759    1.7294    5.4129 C.2     1  UNL1        0.0000
     22 C           4.4839    0.7023    4.7554 C.2     1  UNL1        0.0000
     23 H           4.7267    0.3247    3.7708 H       1  UNL1        0.0000
     24 C           5.2086    2.7069    7.8163 C.3     1  UNL1        0.0000
     25 H           6.1574    2.2854    8.1548 H       1  UNL1        0.0000
     26 H           4.5254    2.7665    8.6612 H       1  UNL1        0.0000
     27 H           5.3877    3.7187    7.4494 H       1  UNL1        0.0000
     28 C           6.3302    2.5147    4.8816 C.3     1  UNL1        0.0000
     29 H           7.1852    2.4182    5.5510 H       1  UNL1        0.0000
     30 H           6.0721    3.5731    4.8116 H       1  UNL1        0.0000
     31 H           6.6101    2.1618    3.8915 H       1  UNL1        0.0000
     32 C           1.1267   -1.7288    6.5519 C.3     1  UNL1        0.0000
     33 H           1.6896   -2.5543    6.9737 H       1  UNL1        0.0000
     34 H           0.1734   -2.1196    6.2130 H       1  UNL1        0.0000
     35 H           0.9325   -1.0156    7.3461 H       1  UNL1        0.0000
     36 C           2.4553   -2.1440    3.6951 C.3     1  UNL1        0.0000
     37 H           2.9964   -1.6757    2.8798 H       1  UNL1        0.0000
     38 H           1.5356   -2.5522    3.2909 H       1  UNL1        0.0000
     39 H           3.0528   -2.9737    4.0559 H       1  UNL1        0.0000
@<TRIPOS>BOND
     1    15    13    1
     2    14    13    1
     3    13    16    1
     4    13     6    1
     5     8     7    1
     6    37    36    1
     7    38    36    1
     8     7     6    2
     9     7     2    1
    10     6     5    1
    11    36    39    1
    12    36     1    1
    13    23    22    1
    14    31    28    1
    15     2     1    1
    16     2     3    1
    17    10     9    1
    18    22    21    2
    19    22    17    1
    20     5     9    1
    21     5     3    1
    22    30    28    1
    23    28    21    1
    24    28    29    1
    25    11     9    1
    26     1    17    1
    27     1    32    1
    28     9    12    1
    29     3     4    1
    30    21    20    1
    31    17    18    1
    32    34    32    1
    33    32    33    1
    34    32    35    1
    35    20    18    1
    36    20    24    1
    37    18    19    1
    38    27    24    1
    39    24    25    1
    40    24    26    1
