@<TRIPOS>MOLECULE
2,3,5,6,8,17,18,20,21,23
 39 40 0 0 0
SMALL
GASTEIGER

@<TRIPOS>ATOM
      1 SI         -0.4447    1.8839    9.3949 Si      1  UNL1        0.0000
      2 C           0.3394    1.8739   13.4205 C.3     1  UNL1        0.0000
      3 C          -0.5533    1.5965   12.3216 C.3     1  UNL1        0.0000
      4 H          -1.5620    1.2210   12.4256 H       1  UNL1        0.0000
      5 C           0.2295    1.5598   11.1283 C.3     1  UNL1        0.0000
      6 C           1.5809    1.8539   11.4964 C.2     1  UNL1        0.0000
      7 H           2.4253    1.8359   10.8197 H       1  UNL1        0.0000
      8 C           1.6698    1.9864   12.8860 C.2     1  UNL1        0.0000
      9 C           0.0478    1.5881   14.8673 C.3     1  UNL1        0.0000
     10 H           0.4486    0.6079   15.1357 H       1  UNL1        0.0000
     11 H          -1.0246    1.5806   15.0481 H       1  UNL1        0.0000
     12 H           0.5078    2.3298   15.5197 H       1  UNL1        0.0000
     13 C           2.9301    2.0310   13.6922 C.3     1  UNL1        0.0000
     14 H           3.1154    1.0483   14.1308 H       1  UNL1        0.0000
     15 H           2.8589    2.7514   14.5041 H       1  UNL1        0.0000
     16 H           3.7799    2.2938   13.0654 H       1  UNL1        0.0000
     17 C          -0.6598    5.6416   11.0237 C.3     1  UNL1        0.0000
     18 C          -1.3156    4.4715   10.4924 C.3     1  UNL1        0.0000
     19 H          -2.3869    4.3321   10.4459 H       1  UNL1        0.0000
     20 C          -0.3475    3.7368    9.7433 C.3     1  UNL1        0.0000
     21 C           0.8966    4.4355    9.8547 C.2     1  UNL1        0.0000
     22 H           1.8090    4.1619    9.3410 H       1  UNL1        0.0000
     23 C           0.7065    5.6189   10.5759 C.2     1  UNL1        0.0000
     24 C          -1.3576    6.8861   11.4977 C.3     1  UNL1        0.0000
     25 H          -1.4038    7.6134   10.6838 H       1  UNL1        0.0000
     26 H          -0.8271    7.3467   12.3306 H       1  UNL1        0.0000
     27 H          -2.3735    6.6594   11.8127 H       1  UNL1        0.0000
     28 C           1.6783    6.7515   10.6902 C.3     1  UNL1        0.0000
     29 H           1.3971    7.5429    9.9922 H       1  UNL1        0.0000
     30 H           2.6864    6.4212   10.4478 H       1  UNL1        0.0000
     31 H           1.6809    7.1750   11.6922 H       1  UNL1        0.0000
     32 C          -2.2185    1.2504    9.1391 C.3     1  UNL1        0.0000
     33 H          -2.8819    1.5783    9.9315 H       1  UNL1        0.0000
     34 H          -2.2365    0.1664    9.1148 H       1  UNL1        0.0000
     35 H          -2.6195    1.6088    8.1974 H       1  UNL1        0.0000
     36 C           0.7085    1.3006    7.9974 C.3     1  UNL1        0.0000
     37 H           0.7340    0.2173    7.9546 H       1  UNL1        0.0000
     38 H           1.7264    1.6513    8.1274 H       1  UNL1        0.0000
     39 H           0.3537    1.6611    7.0381 H       1  UNL1        0.0000
@<TRIPOS>BOND
     1    39    36    1
     2    37    36    1
     3    36    38    1
     4    36     1    1
     5    35    32    1
     6    34    32    1
     7    32     1    1
     8    32    33    1
     9    22    21    1
    10     1    20    1
    11     1     5    1
    12    20    21    1
    13    20    18    1
    14    21    23    2
    15    29    28    1
    16    19    18    1
    17    30    28    1
    18    18    17    1
    19    23    28    1
    20    23    17    1
    21    25    24    1
    22    28    31    1
    23     7     6    1
    24    17    24    1
    25     5     6    1
    26     5     3    1
    27     6     8    2
    28    24    27    1
    29    24    26    1
    30     3     4    1
    31     3     2    1
    32     8     2    1
    33     8    13    1
    34    16    13    1
    35     2     9    1
    36    13    14    1
    37    13    15    1
    38     9    11    1
    39     9    10    1
    40     9    12    1
