@<TRIPOS>MOLECULE
3,4,5,6,7,14,15,16,17,18
 45 48 0 0 0
SMALL
GASTEIGER

@<TRIPOS>ATOM
      1 SI          5.5151   -0.4858    3.3434 Si      1  UNL1        0.0000
      2 S           3.0132    0.3164    6.1136 S.2     1  UNL1        0.0000
      3 C           4.2917    1.2305    5.3539 C.ar    1  UNL1        0.0000
      4 C           5.4196    1.0014    4.5162 C.3     1  UNL1        0.0000
      5 C           6.0460    2.2944    4.3759 C.3     1  UNL1        0.0000
      6 C           5.3476    3.2612    5.1466 C.3     1  UNL1        0.0000
      7 C           4.2604    2.5907    5.7766 C.ar    1  UNL1        0.0000
      8 C           3.2098    2.8478    6.7055 C.ar    1  UNL1        0.0000
      9 C           2.4779    1.7413    6.9629 C.ar    1  UNL1        0.0000
     10 C           7.3118    2.5964    3.6212 C.3     1  UNL1        0.0000
     11 C           5.7609    4.6828    5.3902 C.3     1  UNL1        0.0000
     12 C           7.2291   -0.8885    2.6135 C.3     1  UNL1        0.0000
     13 S           6.3704    1.8228    0.4249 S.2     1  UNL1        0.0000
     14 C           4.8662    1.3338    1.1637 C.ar    1  UNL1        0.0000
     15 C           4.3875    0.3354    2.0586 C.3     1  UNL1        0.0000
     16 C           2.9617    0.5505    2.1257 C.3     1  UNL1        0.0000
     17 C           2.5868    1.6115    1.2596 C.3     1  UNL1        0.0000
     18 C           3.7773    2.0887    0.6402 C.ar    1  UNL1        0.0000
     19 C           4.1928    3.0320   -0.3448 C.ar    1  UNL1        0.0000
     20 C           5.5285    2.9991   -0.5475 C.ar    1  UNL1        0.0000
     21 C           1.9704   -0.2713    2.9037 C.3     1  UNL1        0.0000
     22 C           1.1904    2.0483    0.9272 C.3     1  UNL1        0.0000
     23 C           4.8560   -2.0707    4.1717 C.3     1  UNL1        0.0000
     24 H           3.0116    3.8069    7.1525 H       1  UNL1        0.0000
     25 H           1.6282    1.6470    7.6095 H       1  UNL1        0.0000
     26 H           8.0857    2.9407    4.3101 H       1  UNL1        0.0000
     27 H           7.1424    3.3914    2.8874 H       1  UNL1        0.0000
     28 H           7.6820    1.7138    3.1067 H       1  UNL1        0.0000
     29 H           6.4646    4.7361    6.2248 H       1  UNL1        0.0000
     30 H           4.8911    5.2918    5.6380 H       1  UNL1        0.0000
     31 H           6.2422    5.1072    4.5094 H       1  UNL1        0.0000
     32 H           7.2178   -1.8933    2.2056 H       1  UNL1        0.0000
     33 H           8.0003   -0.8562    3.3758 H       1  UNL1        0.0000
     34 H           7.5136   -0.2169    1.8110 H       1  UNL1        0.0000
     35 H           3.5299    3.6991   -0.8690 H       1  UNL1        0.0000
     36 H           6.1097    3.6008   -1.2176 H       1  UNL1        0.0000
     37 H           1.2696   -0.7569    2.2218 H       1  UNL1        0.0000
     38 H           1.3895    0.3640    3.5806 H       1  UNL1        0.0000
     39 H           2.4701   -1.0419    3.4843 H       1  UNL1        0.0000
     40 H           0.7882    1.4449    0.1093 H       1  UNL1        0.0000
     41 H           1.1860    3.0928    0.6142 H       1  UNL1        0.0000
     42 H           0.5311    1.9412    1.7881 H       1  UNL1        0.0000
     43 H           4.4429   -2.7560    3.4393 H       1  UNL1        0.0000
     44 H           4.0966   -1.8712    4.9198 H       1  UNL1        0.0000
     45 H           5.6734   -2.5811    4.6693 H       1  UNL1        0.0000
@<TRIPOS>BOND
     1    36    20    1
     2    35    19    1
     3    20    19   ar
     4    20    13   ar
     5    19    18   ar
     6    40    22    1
     7    13    14   ar
     8    41    22    1
     9    18    14   ar
    10    18    17    1
    11    22    17    1
    12    22    42    1
    13    14    15    1
    14    17    16    1
    15    34    12    1
    16    15    16    1
    17    15     1    1
    18    16    21    1
    19    32    12    1
    20    37    21    1
    21    12     1    1
    22    12    33    1
    23    27    10    1
    24    21    39    1
    25    21    38    1
    26    28    10    1
    27     1    23    1
    28     1     4    1
    29    43    23    1
    30    10    26    1
    31    10     5    1
    32    23    45    1
    33    23    44    1
    34     5     4    1
    35     5     6    1
    36    31    11    1
    37     4     3    1
    38     6    11    1
    39     6     7    1
    40     3     7   ar
    41     3     2   ar
    42    11    30    1
    43    11    29    1
    44     7     8   ar
    45     2     9   ar
    46     8     9   ar
    47     8    24    1
    48     9    25    1
