@<TRIPOS>MOLECULE
4,5,6,7,8,17,18,19,20,21
 57 62 0 0 0
SMALL
GASTEIGER

@<TRIPOS>ATOM
      1 S          13.8057    0.5695   12.7607 S.2     1  UNL1        0.0000
      2 S          14.3565    2.1615    9.9129 S.2     1  UNL1        0.0000
      3 SI         16.3925   -0.9836   10.4704 Si      1  UNL1        0.0000
      4 C          13.9060   -0.9948   11.9718 C.ar    1  UNL1        0.0000
      5 C          12.7016   -1.7406   12.1073 C.ar    1  UNL1        0.0000
      6 C          12.9161   -3.0159   11.5108 C.3     1  UNL1        0.0000
      7 C          14.2535   -3.0369   11.0350 C.3     1  UNL1        0.0000
      8 C          14.9044   -1.7855   11.3373 C.3     1  UNL1        0.0000
      9 C          12.1412    0.2428   13.2287 C.ar    1  UNL1        0.0000
     10 C          11.6826   -1.0296   12.8279 C.ar    1  UNL1        0.0000
     11 C          10.3815   -1.4050   13.1547 C.ar    1  UNL1        0.0000
     12 C           9.5735   -0.5282   13.8505 C.ar    1  UNL1        0.0000
     13 C          10.0400    0.7251   14.2307 C.ar    1  UNL1        0.0000
     14 C          11.3291    1.1201   13.9233 C.ar    1  UNL1        0.0000
     15 C          11.9281   -4.1456   11.4897 C.3     1  UNL1        0.0000
     16 C          14.9092   -4.2498   10.4334 C.3     1  UNL1        0.0000
     17 C          14.4750    0.6518    9.0263 C.ar    1  UNL1        0.0000
     18 C          13.4954    0.5566    7.9984 C.ar    1  UNL1        0.0000
     19 C          13.7312   -0.6565    7.2907 C.3     1  UNL1        0.0000
     20 C          14.8611   -1.2767    7.8859 C.3     1  UNL1        0.0000
     21 C          15.3625   -0.4584    8.9631 C.3     1  UNL1        0.0000
     22 C          12.9703    2.6404    8.9405 C.ar    1  UNL1        0.0000
     23 C          12.6254    1.6984    7.9487 C.ar    1  UNL1        0.0000
     24 C          11.5493    1.9755    7.1086 C.ar    1  UNL1        0.0000
     25 C          10.8451    3.1521    7.2686 C.ar    1  UNL1        0.0000
     26 C          11.1948    4.0656    8.2565 C.ar    1  UNL1        0.0000
     27 C          12.2619    3.8169    9.1002 C.ar    1  UNL1        0.0000
     28 C          12.9732   -1.1210    6.0813 C.3     1  UNL1        0.0000
     29 C          15.5022   -2.5314    7.3589 C.3     1  UNL1        0.0000
     30 C          17.0229    0.5284   11.4381 C.3     1  UNL1        0.0000
     31 C          17.9238   -2.0756   10.1518 C.3     1  UNL1        0.0000
     32 H          10.0110   -2.3727   12.8533 H       1  UNL1        0.0000
     33 H           8.5631   -0.8172   14.0983 H       1  UNL1        0.0000
     34 H           9.3905    1.3987   14.7690 H       1  UNL1        0.0000
     35 H          11.6998    2.0914   14.2125 H       1  UNL1        0.0000
     36 H          10.9778   -3.8139   11.0629 H       1  UNL1        0.0000
     37 H          11.7395   -4.5034   12.5044 H       1  UNL1        0.0000
     38 H          12.3003   -4.9747   10.8913 H       1  UNL1        0.0000
     39 H          14.8830   -5.0787   11.1432 H       1  UNL1        0.0000
     40 H          14.3855   -4.5675    9.5277 H       1  UNL1        0.0000
     41 H          15.9491   -4.0470   10.1959 H       1  UNL1        0.0000
     42 H          11.2671    1.2653    6.3467 H       1  UNL1        0.0000
     43 H          10.0072    3.3637    6.6212 H       1  UNL1        0.0000
     44 H          10.6279    4.9773    8.3693 H       1  UNL1        0.0000
     45 H          12.5401    4.5187    9.8712 H       1  UNL1        0.0000
     46 H          11.9006   -1.1499    6.2904 H       1  UNL1        0.0000
     47 H          13.1391   -0.4383    5.2450 H       1  UNL1        0.0000
     48 H          13.2905   -2.1187    5.7846 H       1  UNL1        0.0000
     49 H          14.7896   -3.3605    7.3545 H       1  UNL1        0.0000
     50 H          16.3665   -2.8030    7.9573 H       1  UNL1        0.0000
     51 H          15.8403   -2.3752    6.3328 H       1  UNL1        0.0000
     52 H          16.2303    1.2296   11.6749 H       1  UNL1        0.0000
     53 H          17.7739    1.0623   10.8650 H       1  UNL1        0.0000
     54 H          17.4794    0.2201   12.3729 H       1  UNL1        0.0000
     55 H          17.7384   -2.9952    9.6108 H       1  UNL1        0.0000
     56 H          18.3766   -2.3411   11.1006 H       1  UNL1        0.0000
     57 H          18.6561   -1.5079    9.5887 H       1  UNL1        0.0000
@<TRIPOS>BOND
     1    47    28    1
     2    48    28    1
     3    28    46    1
     4    28    19    1
     5    51    29    1
     6    42    24    1
     7    43    25    1
     8    24    25   ar
     9    24    23   ar
    10    25    26   ar
    11    19    20    1
    12    19    18    1
    13    49    29    1
    14    29    20    1
    15    29    50    1
    16    20    21    1
    17    23    18   ar
    18    23    22   ar
    19    18    17   ar
    20    26    44    1
    21    26    27   ar
    22    22    27   ar
    23    22     2   ar
    24    21    17    1
    25    21     3    1
    26    17     2   ar
    27    27    45    1
    28    40    16    1
    29    57    31    1
    30    55    31    1
    31    31     3    1
    32    31    56    1
    33    41    16    1
    34    16     7    1
    35    16    39    1
    36     3     8    1
    37     3    30    1
    38    53    30    1
    39    38    15    1
    40     7     8    1
    41     7     6    1
    42    36    15    1
    43     8     4    1
    44    30    52    1
    45    30    54    1
    46    15     6    1
    47    15    37    1
    48     6     5    1
    49     4     5   ar
    50     4     1   ar
    51     5    10   ar
    52     1     9   ar
    53    10    11   ar
    54    10     9   ar
    55    32    11    1
    56    11    12   ar
    57     9    14   ar
    58    12    33    1
    59    12    13   ar
    60    14    35    1
    61    14    13   ar
    62    13    34    1
