@<TRIPOS>MOLECULE
4,5,6,7,8,17,18,19,21
 57 62 0 0 0
SMALL
GASTEIGER

@<TRIPOS>ATOM
      1 S           1.1743    4.4225    6.5041 S.2     1  UNL1        0.0000
      2 S           0.2326    2.8354   11.8945 S.2     1  UNL1        0.0000
      3 SI         -3.2843    6.3751    9.2105 Si      1  UNL1        0.0000
      4 C           0.2535    5.6797    7.2988 C.ar    1  UNL1        0.0000
      5 C           0.4838    7.0188    7.6929 C.3     1  UNL1        0.0000
      6 C          -0.7765    7.5269    8.1381 C.3     1  UNL1        0.0000
      7 C          -1.7828    6.5010    8.0402 C.3     1  UNL1        0.0000
      8 C          -1.1204    5.3559    7.4765 C.ar    1  UNL1        0.0000
      9 C          -1.4574    4.1443    6.7808 C.ar    1  UNL1        0.0000
     10 C          -2.7033    3.6298    6.4247 C.ar    1  UNL1        0.0000
     11 C          -2.7860    2.4705    5.6815 C.ar    1  UNL1        0.0000
     12 C          -1.6377    1.7963    5.2818 C.ar    1  UNL1        0.0000
     13 C          -0.3895    2.3218    5.5566 C.ar    1  UNL1        0.0000
     14 C          -0.3058    3.5065    6.2664 C.ar    1  UNL1        0.0000
     15 C           1.7834    7.7580    7.5467 C.3     1  UNL1        0.0000
     16 C          -1.0137    8.9774    8.4662 C.3     1  UNL1        0.0000
     17 C          -0.6394    4.3299   11.6707 C.ar    1  UNL1        0.0000
     18 C          -0.6704    5.5723   12.3265 C.2     1  UNL1        0.0000
     19 C          -1.6977    6.3292   11.7033 C.2     1  UNL1        0.0000
     20 C          -2.3203    5.5713   10.6546 C.3     1  UNL1        0.0000
     21 C          -1.6232    4.2956   10.6320 C.ar    1  UNL1        0.0000
     22 C          -1.6729    2.9819   10.0350 C.ar    1  UNL1        0.0000
     23 C          -2.5620    2.4283    9.1158 C.ar    1  UNL1        0.0000
     24 C          -2.4127    1.1233    8.6935 C.ar    1  UNL1        0.0000
     25 C          -1.3821    0.3291    9.1797 C.ar    1  UNL1        0.0000
     26 C          -0.5244    0.8223   10.1439 C.ar    1  UNL1        0.0000
     27 C          -0.6851    2.1255   10.5810 C.ar    1  UNL1        0.0000
     28 C           0.1689    5.9691   13.5030 C.3     1  UNL1        0.0000
     29 C          -2.1231    7.6747   12.2192 C.3     1  UNL1        0.0000
     30 C          -4.0274    8.1037    9.5644 C.3     1  UNL1        0.0000
     31 C          -4.8495    5.4282    8.6570 C.3     1  UNL1        0.0000
     32 H          -3.5950    4.1650    6.7053 H       1  UNL1        0.0000
     33 H          -3.7554    2.0852    5.4022 H       1  UNL1        0.0000
     34 H          -1.7196    0.8787    4.7196 H       1  UNL1        0.0000
     35 H           0.5081    1.8411    5.2002 H       1  UNL1        0.0000
     36 H           2.6139    7.0509    7.5987 H       1  UNL1        0.0000
     37 H           1.8309    8.2650    6.5796 H       1  UNL1        0.0000
     38 H           1.9076    8.5022    8.3349 H       1  UNL1        0.0000
     39 H          -0.9709    9.1746    9.5406 H       1  UNL1        0.0000
     40 H          -1.9825    9.2923    8.0843 H       1  UNL1        0.0000
     41 H          -0.2475    9.5877    7.9899 H       1  UNL1        0.0000
     42 H          -3.3803    3.0219    8.7500 H       1  UNL1        0.0000
     43 H          -3.1090    0.7164    7.9765 H       1  UNL1        0.0000
     44 H          -1.2680   -0.6840    8.8264 H       1  UNL1        0.0000
     45 H           0.2532    0.2064   10.5681 H       1  UNL1        0.0000
     46 H           0.5889    6.9664   13.3655 H       1  UNL1        0.0000
     47 H           0.9851    5.2580   13.6285 H       1  UNL1        0.0000
     48 H          -0.4271    5.9719   14.4181 H       1  UNL1        0.0000
     49 H          -3.1787    7.8445   12.0307 H       1  UNL1        0.0000
     50 H          -1.5390    8.4821   11.7696 H       1  UNL1        0.0000
     51 H          -1.9578    7.7165   13.2951 H       1  UNL1        0.0000
     52 H          -3.3273    8.8339    9.9466 H       1  UNL1        0.0000
     53 H          -4.8413    8.0161   10.2769 H       1  UNL1        0.0000
     54 H          -4.4545    8.5005    8.6483 H       1  UNL1        0.0000
     55 H          -5.1069    5.6810    7.6336 H       1  UNL1        0.0000
     56 H          -4.7832    4.3511    8.7352 H       1  UNL1        0.0000
     57 H          -5.6812    5.7382    9.2815 H       1  UNL1        0.0000
@<TRIPOS>BOND
     1    34    12    1
     2    35    13    1
     3    12    13   ar
     4    12    11   ar
     5    33    11    1
     6    13    14   ar
     7    11    10   ar
     8    14     1   ar
     9    14     9   ar
    10    10    32    1
    11    10     9   ar
    12     1     4   ar
    13    37    15    1
    14     9     8   ar
    15     4     8   ar
    16     4     5    1
    17     8     7    1
    18    15    36    1
    19    15     5    1
    20    15    38    1
    21    55    31    1
    22     5     6    1
    23    43    24    1
    24    41    16    1
    25     7     6    1
    26     7     3    1
    27    40    16    1
    28     6    16    1
    29    16    39    1
    30    54    30    1
    31    31    56    1
    32    31     3    1
    33    31    57    1
    34    24    23   ar
    35    24    25   ar
    36    42    23    1
    37    44    25    1
    38    23    22   ar
    39    25    26   ar
    40     3    30    1
    41     3    20    1
    42    30    52    1
    43    30    53    1
    44    22    27   ar
    45    22    21   ar
    46    26    45    1
    47    26    27   ar
    48    27     2   ar
    49    21    20    1
    50    21    17   ar
    51    20    19    1
    52    17     2   ar
    53    17    18    1
    54    19    29    1
    55    19    18    2
    56    50    29    1
    57    49    29    1
    58    29    51    1
    59    18    28    1
    60    46    28    1
    61    28    47    1
    62    28    48    1
