@<TRIPOS>MOLECULE
2,4,6,8,9,11,13,15,17,18
 27 28 0 0 0
SMALL
GASTEIGER

@<TRIPOS>ATOM
      1 SI          2.7187    5.2693    1.4412 Si      1  UNL1        0.0000
      2 C           6.2808    4.9127   -0.5204 C.2     1  UNL1        0.0000
      3 H           6.9206    4.9492   -1.3947 H       1  UNL1        0.0000
      4 C           6.6807    4.5149    0.7740 C.3     1  UNL1        0.0000
      5 H           7.6836    4.2164    1.0507 H       1  UNL1        0.0000
      6 C           5.6044    4.7540    1.6565 C.3     1  UNL1        0.0000
      7 H           5.6423    4.6733    2.7366 H       1  UNL1        0.0000
      8 C           4.5352    5.3284    0.9181 C.3     1  UNL1        0.0000
      9 C           4.9618    5.3950   -0.4351 C.2     1  UNL1        0.0000
     10 H           4.4154    5.8823   -1.2363 H       1  UNL1        0.0000
     11 C           2.6750    2.0415   -1.0701 C.2     1  UNL1        0.0000
     12 H           2.6692    1.5613   -2.0413 H       1  UNL1        0.0000
     13 C           2.6897    1.3765    0.1739 C.2     1  UNL1        0.0000
     14 H           2.6883    0.3012    0.3085 H       1  UNL1        0.0000
     15 C           2.5317    2.3452    1.1872 C.2     1  UNL1        0.0000
     16 H           2.3764    2.1449    2.2399 H       1  UNL1        0.0000
     17 C           2.3815    3.6186    0.5795 C.3     1  UNL1        0.0000
     18 C           2.5022    3.4169   -0.8219 C.2     1  UNL1        0.0000
     19 H           2.3219    4.1738   -1.5778 H       1  UNL1        0.0000
     20 C           1.6679    6.7167    0.7812 C.3     1  UNL1        0.0000
     21 H           1.9821    7.6534    1.2286 H       1  UNL1        0.0000
     22 H           0.6200    6.5701    1.0194 H       1  UNL1        0.0000
     23 H           1.7503    6.8207   -0.2954 H       1  UNL1        0.0000
     24 C           2.5779    5.0749    3.3332 C.3     1  UNL1        0.0000
     25 H           3.2071    4.2685    3.7023 H       1  UNL1        0.0000
     26 H           1.5554    4.8623    3.6256 H       1  UNL1        0.0000
     27 H           2.8783    5.9868    3.8373 H       1  UNL1        0.0000
@<TRIPOS>BOND
     1    12    11    1
     2    19    18    1
     3     3     2    1
     4    10     9    1
     5    11    18    2
     6    11    13    1
     7    18    17    1
     8     2     9    2
     9     2     4    1
    10     9     8    1
    11    23    20    1
    12    13    14    1
    13    13    15    2
    14    17    15    1
    15    17     1    1
    16     4     5    1
    17     4     6    1
    18    20    22    1
    19    20    21    1
    20    20     1    1
    21     8     1    1
    22     8     6    1
    23    15    16    1
    24     1    24    1
    25     6     7    1
    26    24    26    1
    27    24    25    1
    28    24    27    1
