@<TRIPOS>MOLECULE
2,3,4,5,6,7,8,9,10,11
 51 52 0 0 0
SMALL
GASTEIGER

@<TRIPOS>ATOM
      1 SI          1.8388    6.1442    8.5701 Si      1  UNL1        0.0000
      2 C           3.4418    7.0409    8.0589 C.3     1  UNL1        0.0000
      3 C           4.1570    7.9764    8.9072 C.2     1  UNL1        0.0000
      4 C           5.4969    8.0317    8.4811 C.2     1  UNL1        0.0000
      5 C           5.6786    7.0655    7.4406 C.3     1  UNL1        0.0000
      6 C           4.3901    6.4779    7.1333 C.3     1  UNL1        0.0000
      7 C           2.8645    5.0929    9.7836 C.3     1  UNL1        0.0000
      8 C           3.4371    5.6259   11.0048 C.2     1  UNL1        0.0000
      9 C           4.5251    4.8177   11.3787 C.2     1  UNL1        0.0000
     10 C           4.7215    3.8283   10.3601 C.3     1  UNL1        0.0000
     11 C           3.6538    3.9569    9.3875 C.3     1  UNL1        0.0000
     12 C           3.5621    9.0040    9.8220 C.3     1  UNL1        0.0000
     13 H           3.6144    9.9827    9.3404 H       1  UNL1        0.0000
     14 H           4.1140    9.0668   10.7588 H       1  UNL1        0.0000
     15 H           2.5218    8.7963   10.0386 H       1  UNL1        0.0000
     16 C           6.5507    8.9907    8.9348 C.3     1  UNL1        0.0000
     17 H           6.1547    9.6991    9.6575 H       1  UNL1        0.0000
     18 H           6.9416    9.5389    8.0772 H       1  UNL1        0.0000
     19 H           7.3793    8.4525    9.3986 H       1  UNL1        0.0000
     20 C           6.9054    7.0000    6.5771 C.3     1  UNL1        0.0000
     21 H           7.8027    7.0371    7.1955 H       1  UNL1        0.0000
     22 H           6.9233    7.8448    5.8846 H       1  UNL1        0.0000
     23 H           6.9242    6.0746    6.0061 H       1  UNL1        0.0000
     24 C           4.1240    5.7215    5.8692 C.3     1  UNL1        0.0000
     25 H           4.4858    6.2912    5.0124 H       1  UNL1        0.0000
     26 H           3.0644    5.5384    5.7347 H       1  UNL1        0.0000
     27 H           4.6569    4.7693    5.8851 H       1  UNL1        0.0000
     28 C           2.7929    6.6077   11.9364 C.3     1  UNL1        0.0000
     29 H           3.4930    7.3782   12.2553 H       1  UNL1        0.0000
     30 H           2.4551    6.0792   12.8301 H       1  UNL1        0.0000
     31 H           1.9280    7.0767   11.4828 H       1  UNL1        0.0000
     32 C           5.2981    4.8810   12.6569 C.3     1  UNL1        0.0000
     33 H           6.3397    5.1394   12.4575 H       1  UNL1        0.0000
     34 H           5.2802    3.9076   13.1473 H       1  UNL1        0.0000
     35 H           4.8827    5.6257   13.3306 H       1  UNL1        0.0000
     36 C           5.6237    2.6389   10.5259 C.3     1  UNL1        0.0000
     37 H           6.5941    2.9548   10.9101 H       1  UNL1        0.0000
     38 H           5.7814    2.1413    9.5717 H       1  UNL1        0.0000
     39 H           5.1842    1.9273   11.2288 H       1  UNL1        0.0000
     40 C           3.3076    2.8775    8.4096 C.3     1  UNL1        0.0000
     41 H           3.2294    1.9201    8.9259 H       1  UNL1        0.0000
     42 H           4.0936    2.7874    7.6579 H       1  UNL1        0.0000
     43 H           2.3620    3.0792    7.9196 H       1  UNL1        0.0000
     44 C           0.4070    7.1747    9.3069 C.3     1  UNL1        0.0000
     45 H          -0.2541    6.5209    9.8666 H       1  UNL1        0.0000
     46 H          -0.1704    7.5956    8.4910 H       1  UNL1        0.0000
     47 H           0.6826    7.9950    9.9569 H       1  UNL1        0.0000
     48 C           0.9116    5.1974    7.1972 C.3     1  UNL1        0.0000
     49 H           0.5068    5.9071    6.4824 H       1  UNL1        0.0000
     50 H           0.0711    4.6694    7.6367 H       1  UNL1        0.0000
     51 H           1.5035    4.4771    6.6482 H       1  UNL1        0.0000
@<TRIPOS>BOND
     1    25    24    1
     2    26    24    1
     3    24    27    1
     4    24     6    1
     5    22    20    1
     6    23    20    1
     7    49    48    1
     8    20    21    1
     9    20     5    1
    10    51    48    1
    11     6     5    1
    12     6     2    1
    13    48    50    1
    14    48     1    1
    15     5     4    1
    16    42    40    1
    17    43    40    1
    18     2     1    1
    19     2     3    1
    20    18    16    1
    21    40    41    1
    22    40    11    1
    23     4     3    2
    24     4    16    1
    25    46    44    1
    26     1    44    1
    27     1     7    1
    28     3    12    1
    29    16    19    1
    30    16    17    1
    31    44    45    1
    32    44    47    1
    33    13    12    1
    34    11     7    1
    35    11    10    1
    36    38    36    1
    37     7     8    1
    38    12    15    1
    39    12    14    1
    40    10    36    1
    41    10     9    1
    42    36    37    1
    43    36    39    1
    44     8     9    2
    45     8    28    1
    46     9    32    1
    47    31    28    1
    48    28    29    1
    49    28    30    1
    50    33    32    1
    51    32    34    1
    52    32    35    1
