@<TRIPOS>MOLECULE
3,4,5,6,7,28,29,30,31
 51 52 0 0 0
SMALL
GASTEIGER

@<TRIPOS>ATOM
      1 SI          4.3493    3.7304    7.4164 Si      1  UNL1        0.0000
      2 C           2.5978    3.7304    8.1459 C.3     1  UNL1        0.0000
      3 C           1.7409    4.8947    8.1819 C.3     1  UNL1        0.0000
      4 C           0.3993    4.4420    8.3422 C.2     1  UNL1        0.0000
      5 C           3.5852    3.7304    5.6793 C.3     1  UNL1        0.0000
      6 C           2.9904    4.8948    5.0635 C.2     1  UNL1        0.0000
      7 C           2.1228    4.4423    4.0279 C.2     1  UNL1        0.0000
      8 C           2.1363    6.3181    8.4306 C.3     1  UNL1        0.0000
      9 H           1.5779    6.9943    7.7837 H       1  UNL1        0.0000
     10 H           3.1947    6.4734    8.2610 H       1  UNL1        0.0000
     11 H           1.9145    6.5933    9.4642 H       1  UNL1        0.0000
     12 C          -0.7478    5.3119    8.7617 C.3     1  UNL1        0.0000
     13 H          -1.7047    4.8506    8.5282 H       1  UNL1        0.0000
     14 H          -0.7044    6.2841    8.2768 H       1  UNL1        0.0000
     15 H          -0.7007    5.4689    9.8418 H       1  UNL1        0.0000
     16 C           3.4574    6.3161    5.1554 C.3     1  UNL1        0.0000
     17 H           3.8608    6.6392    4.1936 H       1  UNL1        0.0000
     18 H           4.2375    6.4255    5.8995 H       1  UNL1        0.0000
     19 H           2.6362    6.9864    5.4090 H       1  UNL1        0.0000
     20 C           1.5763    5.3114    2.9348 C.3     1  UNL1        0.0000
     21 H           1.2981    6.2918    3.3137 H       1  UNL1        0.0000
     22 H           0.7051    4.8606    2.4648 H       1  UNL1        0.0000
     23 H           2.3428    5.4465    2.1680 H       1  UNL1        0.0000
     24 C           5.5180    5.1757    7.8769 C.3     1  UNL1        0.0000
     25 H           6.4176    5.1089    7.2734 H       1  UNL1        0.0000
     26 H           5.8153    5.0711    8.9152 H       1  UNL1        0.0000
     27 H           5.1201    6.1746    7.7556 H       1  UNL1        0.0000
     28 C           1.7409    2.5660    8.1819 C.3     1  UNL1        0.0000
     29 C           0.3993    3.0188    8.3422 C.2     1  UNL1        0.0000
     30 C           2.9904    2.5659    5.0635 C.2     1  UNL1        0.0000
     31 C           2.1228    3.0185    4.0279 C.2     1  UNL1        0.0000
     32 C           3.4574    1.1446    5.1555 C.3     1  UNL1        0.0000
     33 H           3.8609    0.8215    4.1937 H       1  UNL1        0.0000
     34 H           4.2375    1.0352    5.8997 H       1  UNL1        0.0000
     35 H           2.6362    0.4743    5.4089 H       1  UNL1        0.0000
     36 C           1.5763    2.1493    2.9348 C.3     1  UNL1        0.0000
     37 H           1.2981    1.1690    3.3137 H       1  UNL1        0.0000
     38 H           0.7051    2.6001    2.4648 H       1  UNL1        0.0000
     39 H           2.3428    2.0142    2.1680 H       1  UNL1        0.0000
     40 C           2.1363    1.1426    8.4306 C.3     1  UNL1        0.0000
     41 H           1.5779    0.4664    7.7836 H       1  UNL1        0.0000
     42 H           3.1947    0.9874    8.2611 H       1  UNL1        0.0000
     43 H           1.9144    0.8674    9.4642 H       1  UNL1        0.0000
     44 C          -0.7478    2.1488    8.7616 C.3     1  UNL1        0.0000
     45 H          -1.7047    2.6102    8.5282 H       1  UNL1        0.0000
     46 H          -0.7044    1.1767    8.2767 H       1  UNL1        0.0000
     47 H          -0.7007    1.9917    9.8418 H       1  UNL1        0.0000
     48 C           5.5180    2.2850    7.8769 C.3     1  UNL1        0.0000
     49 H           6.4176    2.3518    7.2733 H       1  UNL1        0.0000
     50 H           5.8154    2.3897    8.9152 H       1  UNL1        0.0000
     51 H           5.1201    1.2861    7.7557 H       1  UNL1        0.0000
@<TRIPOS>BOND
     1    23    20    1
     2    39    36    1
     3    22    20    1
     4    38    36    1
     5    20    21    1
     6    20     7    1
     7    36    37    1
     8    36    31    1
     9    31     7    1
    10    31    30    2
    11     7     6    2
    12    17    16    1
    13    33    32    1
    14     6    16    1
    15     6     5    1
    16    30    32    1
    17    30     5    1
    18    16    19    1
    19    16    18    1
    20    32    35    1
    21    32    34    1
    22     5     1    1
    23    49    48    1
    24    25    24    1
    25     1    48    1
    26     1    24    1
    27     1     2    1
    28    27    24    1
    29    51    48    1
    30    41    40    1
    31     9     8    1
    32    48    50    1
    33    24    26    1
    34     2     3    1
    35     2    28    1
    36     3     4    1
    37     3     8    1
    38    28    29    1
    39    28    40    1
    40    10     8    1
    41    42    40    1
    42    46    44    1
    43    14    12    1
    44     4    29    2
    45     4    12    1
    46    29    44    1
    47    40    43    1
    48     8    11    1
    49    13    12    1
    50    45    44    1
    51    44    47    1
    52    12    15    1
