@<TRIPOS>MOLECULE
5,6,7,9,10,12,13,14,16,17
 76 78 0 0 0
SMALL
GASTEIGER

@<TRIPOS>ATOM
      1 SI          1.5895   12.5802   10.2222 Si      1  UNL1        0.0000
      2 SI          4.8980   12.3204    9.4460 Si      1  UNL1        0.0000
      3 SI          4.8106   10.3801   14.7683 Si      1  UNL1        0.0000
      4 SI          1.0796   11.1416   13.6821 Si      1  UNL1        0.0000
      5 C           2.7749   14.0458   10.4105 C.2     1  UNL1        0.0000
      6 C           4.1628   13.9466   10.0728 C.2     1  UNL1        0.0000
      7 C           4.8517   14.9581   10.7952 C.2     1  UNL1        0.0000
      8 H           5.9077   15.1813   10.6936 H       1  UNL1        0.0000
      9 C           3.9148   15.6885   11.5661 C.2     1  UNL1        0.0000
     10 C           2.6446   15.1043   11.3427 C.3     1  UNL1        0.0000
     11 H           1.7141   15.4955   11.7396 H       1  UNL1        0.0000
     12 C           2.7297   11.5192   11.3141 C.3     1  UNL1        0.0000
     13 C           4.0739   11.3261   10.8436 C.3     1  UNL1        0.0000
     14 C           4.8371   10.9093   11.9537 C.2     1  UNL1        0.0000
     15 H           5.8775   10.6172   11.9133 H       1  UNL1        0.0000
     16 C           4.0312   10.8605   13.1153 C.2     1  UNL1        0.0000
     17 C           2.7005   11.2440   12.7196 C.3     1  UNL1        0.0000
     18 C          -0.1850   13.1364   10.6603 C.3     1  UNL1        0.0000
     19 H          -0.7365   12.3618   11.1762 H       1  UNL1        0.0000
     20 H          -0.7128   13.3540    9.7374 H       1  UNL1        0.0000
     21 H          -0.2179   14.0308   11.2694 H       1  UNL1        0.0000
     22 C           1.3848   11.7185    8.5281 C.3     1  UNL1        0.0000
     23 H           0.4317   11.2000    8.5022 H       1  UNL1        0.0000
     24 H           2.1601   10.9891    8.3341 H       1  UNL1        0.0000
     25 H           1.3812   12.4360    7.7154 H       1  UNL1        0.0000
     26 C           4.6193   11.8898    7.6093 C.3     1  UNL1        0.0000
     27 H           5.4930   12.1831    7.0380 H       1  UNL1        0.0000
     28 H           3.7645   12.4024    7.1886 H       1  UNL1        0.0000
     29 H           4.4808   10.8244    7.4664 H       1  UNL1        0.0000
     30 C           6.7851   12.3382    9.7474 C.3     1  UNL1        0.0000
     31 H           7.2752   13.0225    9.0618 H       1  UNL1        0.0000
     32 H           7.2149   11.3561    9.5782 H       1  UNL1        0.0000
     33 H           7.0349   12.6447   10.7605 H       1  UNL1        0.0000
     34 C           4.1661   16.9072   12.4203 C.3     1  UNL1        0.0000
     35 H           3.2994   17.0224   13.0869 H       1  UNL1        0.0000
     36 C           5.3925   16.6791   13.3109 C.3     1  UNL1        0.0000
     37 H           5.2278   15.7940   13.9305 H       1  UNL1        0.0000
     38 H           5.5521   17.5220   13.9774 H       1  UNL1        0.0000
     39 H           6.2950   16.5236   12.7238 H       1  UNL1        0.0000
     40 C           4.2344   18.2090   11.5668 C.3     1  UNL1        0.0000
     41 C           2.9103   18.3647   10.8103 C.3     1  UNL1        0.0000
     42 H           2.9192   19.2791   10.2212 H       1  UNL1        0.0000
     43 H           2.0750   18.4161   11.5055 H       1  UNL1        0.0000
     44 H           2.7496   17.5270   10.1366 H       1  UNL1        0.0000
     45 C           4.4143   19.4248   12.4813 C.3     1  UNL1        0.0000
     46 H           4.2760   20.3409   11.9107 H       1  UNL1        0.0000
     47 H           5.4107   19.4503   12.9137 H       1  UNL1        0.0000
     48 H           3.6845   19.4135   13.2880 H       1  UNL1        0.0000
     49 C           5.3765   18.1735   10.5507 C.3     1  UNL1        0.0000
     50 H           5.4029   19.1095    9.9964 H       1  UNL1        0.0000
     51 H           5.2340   17.3636    9.8404 H       1  UNL1        0.0000
     52 H           6.3371   18.0479   11.0430 H       1  UNL1        0.0000
     53 C           6.6787   10.0737   14.4707 C.3     1  UNL1        0.0000
     54 H           7.1684    9.8250   15.4077 H       1  UNL1        0.0000
     55 H           7.1730   10.9536   14.0710 H       1  UNL1        0.0000
     56 H           6.8525    9.2471   13.7879 H       1  UNL1        0.0000
     57 C           4.1224    8.7215   15.4382 C.3     1  UNL1        0.0000
     58 H           3.5501    8.8621   16.3469 H       1  UNL1        0.0000
     59 H           4.9425    8.0524   15.6750 H       1  UNL1        0.0000
     60 H           3.4888    8.2163   14.7177 H       1  UNL1        0.0000
     61 C           4.6845   11.7728   16.0698 C.3     1  UNL1        0.0000
     62 H           3.6641   12.0986   16.2469 H       1  UNL1        0.0000
     63 H           5.2525   12.6446   15.7492 H       1  UNL1        0.0000
     64 H           5.0960   11.4459   17.0205 H       1  UNL1        0.0000
     65 C           0.2552   12.8562   13.9146 C.3     1  UNL1        0.0000
     66 H          -0.8130   12.8153   13.7257 H       1  UNL1        0.0000
     67 H           0.6866   13.6150   13.2670 H       1  UNL1        0.0000
     68 H           0.3916   13.2000   14.9350 H       1  UNL1        0.0000
     69 C           1.1307   10.3557   15.4192 C.3     1  UNL1        0.0000
     70 H           0.1442   10.4284   15.8675 H       1  UNL1        0.0000
     71 H           1.8276   10.8545   16.0817 H       1  UNL1        0.0000
     72 H           1.3943    9.3064   15.3828 H       1  UNL1        0.0000
     73 C          -0.0434    9.9911   12.6324 C.3     1  UNL1        0.0000
     74 H          -1.0868   10.1088   12.9060 H       1  UNL1        0.0000
     75 H           0.2179    8.9517   12.8028 H       1  UNL1        0.0000
     76 H           0.0475   10.1741   11.5669 H       1  UNL1        0.0000
@<TRIPOS>BOND
     1    27    26    1
     2    28    26    1
     3    29    26    1
     4    26     2    1
     5    25    22    1
     6    24    22    1
     7    23    22    1
     8    22     1    1
     9    31    30    1
    10     2    30    1
    11     2     6    1
    12     2    13    1
    13    32    30    1
    14    20    18    1
    15    30    33    1
    16    51    49    1
    17    50    49    1
    18     6     5    2
    19     6     7    1
    20    44    41    1
    21    42    41    1
    22     1     5    1
    23     1    18    1
    24     1    12    1
    25     5    10    1
    26    49    52    1
    27    49    40    1
    28    18    19    1
    29    18    21    1
    30     8     7    1
    31     7     9    2
    32    41    43    1
    33    41    40    1
    34    13    12    1
    35    13    14    1
    36    12    17    1
    37    10     9    1
    38    10    11    1
    39     9    34    1
    40    40    34    1
    41    40    45    1
    42    76    73    1
    43    46    45    1
    44    15    14    1
    45    14    16    2
    46    34    35    1
    47    34    36    1
    48    45    47    1
    49    45    48    1
    50    73    75    1
    51    73    74    1
    52    73     4    1
    53    17    16    1
    54    17     4    1
    55    39    36    1
    56    16     3    1
    57    67    65    1
    58    36    37    1
    59    36    38    1
    60     4    65    1
    61     4    69    1
    62    66    65    1
    63    56    53    1
    64    65    68    1
    65    55    53    1
    66    53     3    1
    67    53    54    1
    68    60    57    1
    69     3    57    1
    70     3    61    1
    71    72    69    1
    72    69    70    1
    73    69    71    1
    74    57    59    1
    75    57    58    1
    76    63    61    1
    77    61    62    1
    78    61    64    1
