@<TRIPOS>MOLECULE
6,7,8,9,10,15,16,17,18,19
 43 47 0 0 0
SMALL
GASTEIGER

@<TRIPOS>ATOM
      1 SI          2.4812    7.0622    3.0869 Si      1  UNL1        0.0000
      2 C           1.9820    5.2635    3.4865 C.3     1  UNL1        0.0000
      3 C           3.2005    4.4567    3.0367 C.3     1  UNL1        0.0000
      4 C           4.4565    5.2432    3.3960 C.3     1  UNL1        0.0000
      5 C           4.3253    6.6514    2.8149 C.3     1  UNL1        0.0000
      6 C           2.0619    8.3986    4.3488 C.3     1  UNL1        0.0000
      7 C           2.7303    9.6480    4.4816 C.2     1  UNL1        0.0000
      8 C           1.9151   10.5687    5.1581 C.2     1  UNL1        0.0000
      9 C           0.6762    9.9268    5.4472 C.3     1  UNL1        0.0000
     10 C           0.7540    8.5792    4.9142 C.3     1  UNL1        0.0000
     11 C          -0.3726    7.7338    5.0045 C.2     1  UNL1        0.0000
     12 C          -1.4954    8.1920    5.6497 C.2     1  UNL1        0.0000
     13 C          -1.5473    9.4802    6.2134 C.2     1  UNL1        0.0000
     14 C          -0.4881   10.3474    6.1192 C.2     1  UNL1        0.0000
     15 C           1.5504    7.9351    1.6991 C.3     1  UNL1        0.0000
     16 C           0.1402    7.9039    1.5085 C.2     1  UNL1        0.0000
     17 C          -0.2696    8.9876    0.7162 C.2     1  UNL1        0.0000
     18 C           0.8843    9.7644    0.4063 C.3     1  UNL1        0.0000
     19 C           2.0193    9.1250    1.0458 C.3     1  UNL1        0.0000
     20 C           3.2939    9.7237    0.9514 C.2     1  UNL1        0.0000
     21 C           3.4353   10.8673    0.2037 C.2     1  UNL1        0.0000
     22 C           2.3417   11.4550   -0.4584 C.2     1  UNL1        0.0000
     23 C           1.0787   10.9268   -0.3649 C.2     1  UNL1        0.0000
     24 H           1.0822    4.9104    2.9883 H       1  UNL1        0.0000
     25 H           1.8352    5.1325    4.5579 H       1  UNL1        0.0000
     26 H           3.1647    4.3232    1.9543 H       1  UNL1        0.0000
     27 H           3.2150    3.4680    3.4977 H       1  UNL1        0.0000
     28 H           4.5346    5.3076    4.4825 H       1  UNL1        0.0000
     29 H           5.3505    4.7410    3.0232 H       1  UNL1        0.0000
     30 H           5.0273    7.3312    3.2919 H       1  UNL1        0.0000
     31 H           4.5629    6.6290    1.7520 H       1  UNL1        0.0000
     32 H           3.7646    9.8281    4.2074 H       1  UNL1        0.0000
     33 H           2.2061   11.5583    5.4857 H       1  UNL1        0.0000
     34 H          -0.3284    6.7233    4.6153 H       1  UNL1        0.0000
     35 H          -2.3625    7.5542    5.7347 H       1  UNL1        0.0000
     36 H          -2.4486    9.7876    6.7212 H       1  UNL1        0.0000
     37 H          -0.5372   11.3387    6.5500 H       1  UNL1        0.0000
     38 H          -0.5088    7.0944    1.8256 H       1  UNL1        0.0000
     39 H          -1.2667    9.1540    0.3293 H       1  UNL1        0.0000
     40 H           4.1516    9.2567    1.4211 H       1  UNL1        0.0000
     41 H           4.4058   11.3321    0.1136 H       1  UNL1        0.0000
     42 H           2.5081   12.3466   -1.0431 H       1  UNL1        0.0000
     43 H           0.2410   11.3872   -0.8720 H       1  UNL1        0.0000
@<TRIPOS>BOND
     1    42    22    1
     2    43    23    1
     3    22    23    2
     4    22    21    1
     5    23    18    1
     6    41    21    1
     7    21    20    2
     8    39    17    1
     9    18    17    1
    10    18    19    1
    11    17    16    2
    12    20    19    1
    13    20    40    1
    14    19    15    1
    15    16    15    1
    16    16    38    1
    17    15     1    1
    18    31     5    1
    19    26     3    1
    20     5     1    1
    21     5    30    1
    22     5     4    1
    23    24     2    1
    24    29     4    1
    25     3     4    1
    26     3     2    1
    27     3    27    1
    28     1     2    1
    29     1     6    1
    30     4    28    1
    31     2    25    1
    32    32     7    1
    33     6     7    1
    34     6    10    1
    35     7     8    2
    36    34    11    1
    37    10    11    1
    38    10     9    1
    39    11    12    2
    40     8     9    1
    41     8    33    1
    42     9    14    1
    43    12    35    1
    44    12    13    1
    45    14    13    2
    46    14    37    1
    47    13    36    1
