@<TRIPOS>MOLECULE
6,7,8,9,10,15,16,17,18,19
 43 47 0 0 0
SMALL
GASTEIGER

@<TRIPOS>ATOM
      1 SI          2.8754    4.5648    3.4200 Si      1  UNL1        0.0000
      2 C           1.6363    3.2567    2.7898 C.3     1  UNL1        0.0000
      3 C           1.5022    3.5950    1.3045 C.3     1  UNL1        0.0000
      4 C           2.8741    3.9988    0.7755 C.3     1  UNL1        0.0000
      5 C           3.4287    5.1043    1.6738 C.3     1  UNL1        0.0000
      6 C           4.2537    4.0398    4.5962 C.3     1  UNL1        0.0000
      7 C           5.4561    4.7843    4.7668 C.2     1  UNL1        0.0000
      8 C           6.0656    4.4551    5.9882 C.2     1  UNL1        0.0000
      9 C           5.2383    3.4966    6.6437 C.3     1  UNL1        0.0000
     10 C           4.0891    3.2602    5.7900 C.3     1  UNL1        0.0000
     11 C           3.0859    2.3643    6.2148 C.2     1  UNL1        0.0000
     12 C           3.2413    1.7134    7.4136 C.2     1  UNL1        0.0000
     13 C           4.3735    1.9196    8.2228 C.2     1  UNL1        0.0000
     14 C           5.3651    2.7949    7.8582 C.2     1  UNL1        0.0000
     15 C           2.2997    5.9596    4.5523 C.3     1  UNL1        0.0000
     16 C           3.0298    7.1748    4.6939 C.2     1  UNL1        0.0000
     17 C           2.6762    7.8216    5.8881 C.2     1  UNL1        0.0000
     18 C           1.7159    7.0073    6.5567 C.3     1  UNL1        0.0000
     19 C           1.5023    5.8271    5.7388 C.3     1  UNL1        0.0000
     20 C           0.6090    4.8318    6.1881 C.2     1  UNL1        0.0000
     21 C          -0.0620    5.0242    7.3702 C.2     1  UNL1        0.0000
     22 C           0.1214    6.1860    8.1418 C.2     1  UNL1        0.0000
     23 C           0.9951    7.1707    7.7554 C.2     1  UNL1        0.0000
     24 H           0.6618    3.2647    3.2713 H       1  UNL1        0.0000
     25 H           2.0480    2.2539    2.8983 H       1  UNL1        0.0000
     26 H           1.0995    2.7520    0.7408 H       1  UNL1        0.0000
     27 H           0.8168    4.4361    1.1881 H       1  UNL1        0.0000
     28 H           3.5380    3.1337    0.8171 H       1  UNL1        0.0000
     29 H           2.8098    4.3238   -0.2640 H       1  UNL1        0.0000
     30 H           4.5026    5.2066    1.5395 H       1  UNL1        0.0000
     31 H           2.9753    6.0564    1.4009 H       1  UNL1        0.0000
     32 H           5.8984    5.4241    4.0092 H       1  UNL1        0.0000
     33 H           7.0401    4.7848    6.3254 H       1  UNL1        0.0000
     34 H           2.2330    2.1615    5.5790 H       1  UNL1        0.0000
     35 H           2.4844    1.0203    7.7485 H       1  UNL1        0.0000
     36 H           4.4536    1.3751    9.1511 H       1  UNL1        0.0000
     37 H           6.2350    2.9462    8.4836 H       1  UNL1        0.0000
     38 H           3.6768    7.5956    3.9304 H       1  UNL1        0.0000
     39 H           2.9924    8.8096    6.1979 H       1  UNL1        0.0000
     40 H           0.4236    3.9522    5.5846 H       1  UNL1        0.0000
     41 H          -0.7529    4.2725    7.7215 H       1  UNL1        0.0000
     42 H          -0.4382    6.2942    9.0582 H       1  UNL1        0.0000
     43 H           1.1306    8.0635    8.3516 H       1  UNL1        0.0000
@<TRIPOS>BOND
     1    29     4    1
     2    26     3    1
     3     4    28    1
     4     4     3    1
     5     4     5    1
     6    27     3    1
     7     3     2    1
     8    31     5    1
     9    30     5    1
    10     5     1    1
    11     2    25    1
    12     2    24    1
    13     2     1    1
    14     1    15    1
    15     1     6    1
    16    38    16    1
    17    32     7    1
    18    15    16    1
    19    15    19    1
    20     6     7    1
    21     6    10    1
    22    16    17    2
    23     7     8    2
    24    34    11    1
    25    40    20    1
    26    19    20    1
    27    19    18    1
    28    10    11    1
    29    10     9    1
    30    17    39    1
    31    17    18    1
    32     8    33    1
    33     8     9    1
    34    20    21    2
    35    11    12    2
    36    18    23    1
    37     9    14    1
    38    21    41    1
    39    21    22    1
    40    12    35    1
    41    12    13    1
    42    23    22    2
    43    23    43    1
    44    14    13    2
    45    14    37    1
    46    22    42    1
    47    13    36    1
