@<TRIPOS>MOLECULE
10,13,15,17,18,20,21,23,24
 83 86 0 0 0
SMALL
GASTEIGER

@<TRIPOS>ATOM
      1 SI          3.8340    7.9682   15.4335 Si      1  UNL1        0.0000
      2 C           2.9414    8.7489   16.9232 C.3     1  UNL1        0.0000
      3 H           2.3353    9.5912   16.6085 H       1  UNL1        0.0000
      4 H           3.6387    9.1053   17.6737 H       1  UNL1        0.0000
      5 H           2.2851    8.0279   17.3980 H       1  UNL1        0.0000
      6 C           2.6180    7.3305   14.1139 C.3     1  UNL1        0.0000
      7 H           3.1378    6.8830   13.2718 H       1  UNL1        0.0000
      8 H           2.0032    8.1388   13.7334 H       1  UNL1        0.0000
      9 H           1.9538    6.5817   14.5311 H       1  UNL1        0.0000
     10 C           5.5193    5.5734   15.0908 C.2     1  UNL1        0.0000
     11 H           4.9273    5.1430   14.2911 H       1  UNL1        0.0000
     12 C           5.0978    6.6463   15.9182 C.3     1  UNL1        0.0000
     13 C           6.1371    6.8489   16.8689 C.2     1  UNL1        0.0000
     14 H           6.1013    7.5307   17.7121 H       1  UNL1        0.0000
     15 C           7.1322    5.8678   16.6657 C.2     1  UNL1        0.0000
     16 H           7.9778    5.7267   17.3241 H       1  UNL1        0.0000
     17 C           6.7596    5.0632   15.5597 C.2     1  UNL1        0.0000
     18 C           6.2006    9.6800   15.4520 C.2     1  UNL1        0.0000
     19 H           6.1174    9.9862   16.4888 H       1  UNL1        0.0000
     20 C           5.1684    9.0772   14.6837 C.3     1  UNL1        0.0000
     21 C           5.6665    8.9703   13.3582 C.3     1  UNL1        0.0000
     22 H           5.0983    8.6072   12.5085 H       1  UNL1        0.0000
     23 C           6.9638    9.5451   13.2912 C.3     1  UNL1        0.0000
     24 C           7.2778    9.9936   14.6013 C.2     1  UNL1        0.0000
     25 H           8.1423   10.5667   14.9049 H       1  UNL1        0.0000
     26 C           7.3781    3.8020   14.9858 C.3     1  UNL1        0.0000
     27 H           7.5576    3.9784   13.9163 H       1  UNL1        0.0000
     28 C           8.6985    3.3049   15.6139 C.3     1  UNL1        0.0000
     29 H           8.9844    2.4195   15.0296 H       1  UNL1        0.0000
     30 C           9.8755    4.2959   15.4965 C.3     1  UNL1        0.0000
     31 H           9.6980    5.1661   16.1340 H       1  UNL1        0.0000
     32 C          11.1875    3.6464   15.9451 C.3     1  UNL1        0.0000
     33 H          12.0157    4.3271   15.7624 H       1  UNL1        0.0000
     34 H          11.3700    2.7294   15.3880 H       1  UNL1        0.0000
     35 H          11.1823    3.4130   17.0060 H       1  UNL1        0.0000
     36 C          10.0510    4.7941   14.0605 C.3     1  UNL1        0.0000
     37 H          10.9539    5.3974   13.9909 H       1  UNL1        0.0000
     38 H           9.2139    5.4200   13.7480 H       1  UNL1        0.0000
     39 H          10.1458    3.9562   13.3720 H       1  UNL1        0.0000
     40 C           8.4627    2.8298   17.0536 C.3     1  UNL1        0.0000
     41 H           8.1636    3.6649   17.6849 H       1  UNL1        0.0000
     42 H           9.3866    2.4189   17.4607 H       1  UNL1        0.0000
     43 C           7.3848    1.7516   17.1224 C.3     1  UNL1        0.0000
     44 H           7.2239    1.4642   18.1641 H       1  UNL1        0.0000
     45 H           7.7211    0.8631   16.5814 H       1  UNL1        0.0000
     46 C           6.0782    2.2448   16.5077 C.3     1  UNL1        0.0000
     47 H           5.7366    3.1259   17.0618 H       1  UNL1        0.0000
     48 C           4.9959    1.1718   16.5767 C.3     1  UNL1        0.0000
     49 H           4.8120    0.8796   17.6081 H       1  UNL1        0.0000
     50 H           5.3002    0.2877   16.0198 H       1  UNL1        0.0000
     51 H           4.0641    1.5399   16.1530 H       1  UNL1        0.0000
     52 C           6.3496    2.6556   15.0633 C.3     1  UNL1        0.0000
     53 H           5.4184    2.9576   14.5832 H       1  UNL1        0.0000
     54 H           6.7376    1.7943   14.5139 H       1  UNL1        0.0000
     55 C           7.7559    9.6678   12.0099 C.3     1  UNL1        0.0000
     56 H           7.2360    9.0412   11.2732 H       1  UNL1        0.0000
     57 C           7.7938   11.1088   11.4401 C.3     1  UNL1        0.0000
     58 H           8.1880   11.0365   10.4189 H       1  UNL1        0.0000
     59 C           6.3763   11.7134   11.3551 C.3     1  UNL1        0.0000
     60 H           5.8907   11.5912   12.3289 H       1  UNL1        0.0000
     61 C           6.3925   13.2048   11.0154 C.3     1  UNL1        0.0000
     62 H           6.7947   13.7979   11.8314 H       1  UNL1        0.0000
     63 H           5.3776   13.5480   10.8256 H       1  UNL1        0.0000
     64 H           6.9845   13.3882   10.1209 H       1  UNL1        0.0000
     65 C           5.5404   10.9923   10.2958 C.3     1  UNL1        0.0000
     66 H           5.4564    9.9298   10.5002 H       1  UNL1        0.0000
     67 H           5.9907   11.1175    9.3129 H       1  UNL1        0.0000
     68 H           4.5354   11.4074   10.2651 H       1  UNL1        0.0000
     69 C           8.7672   11.9752   12.2417 C.3     1  UNL1        0.0000
     70 H           8.8259   12.9682   11.7961 H       1  UNL1        0.0000
     71 H           8.4043   12.0888   13.2636 H       1  UNL1        0.0000
     72 C          10.1698   11.3728   12.2430 C.3     1  UNL1        0.0000
     73 H          10.8480   12.0259   12.7971 H       1  UNL1        0.0000
     74 H          10.5344   11.3136   11.2138 H       1  UNL1        0.0000
     75 C          10.1801    9.9766   12.8567 C.3     1  UNL1        0.0000
     76 H           9.8993   10.0458   13.9102 H       1  UNL1        0.0000
     77 C          11.5715    9.3515   12.7990 C.3     1  UNL1        0.0000
     78 H          11.5611    8.3799   13.2872 H       1  UNL1        0.0000
     79 H          12.2953    9.9837   13.3085 H       1  UNL1        0.0000
     80 H          11.8945    9.2200   11.7680 H       1  UNL1        0.0000
     81 C           9.1799    9.0887   12.1179 C.3     1  UNL1        0.0000
     82 H           9.1373    8.1054   12.6078 H       1  UNL1        0.0000
     83 H           9.5523    8.9334   11.1009 H       1  UNL1        0.0000
@<TRIPOS>BOND
     1    67    65    1
     2    64    61    1
     3    68    65    1
     4    65    66    1
     5    65    59    1
     6    58    57    1
     7    63    61    1
     8    61    59    1
     9    61    62    1
    10    83    81    1
    11    74    72    1
    12    56    55    1
    13    59    57    1
    14    59    60    1
    15    57    55    1
    16    57    69    1
    17    80    77    1
    18    70    69    1
    19    55    81    1
    20    55    23    1
    21    81    82    1
    22    81    75    1
    23    69    72    1
    24    69    71    1
    25    72    73    1
    26    72    75    1
    27    22    21    1
    28    77    75    1
    29    77    78    1
    30    77    79    1
    31    75    76    1
    32     7     6    1
    33    23    21    1
    34    23    24    1
    35    21    20    1
    36    39    36    1
    37     8     6    1
    38    38    36    1
    39    27    26    1
    40    37    36    1
    41    36    30    1
    42     6     9    1
    43     6     1    1
    44    11    10    1
    45    54    52    1
    46    53    52    1
    47    24    25    1
    48    24    18    2
    49    20     1    1
    50    20    18    1
    51    26    52    1
    52    26    17    1
    53    26    28    1
    54    29    28    1
    55    52    46    1
    56    10    17    2
    57    10    12    1
    58    34    32    1
    59     1    12    1
    60     1     2    1
    61    18    19    1
    62    30    28    1
    63    30    32    1
    64    30    31    1
    65    17    15    1
    66    28    40    1
    67    33    32    1
    68    12    13    1
    69    32    35    1
    70    50    48    1
    71    51    48    1
    72    46    48    1
    73    46    47    1
    74    46    43    1
    75    48    49    1
    76    45    43    1
    77     3     2    1
    78    15    13    2
    79    15    16    1
    80    13    14    1
    81     2     5    1
    82     2     4    1
    83    40    43    1
    84    40    42    1
    85    40    41    1
    86    43    44    1
