@<TRIPOS>MOLECULE
4,5,6,7,8,13,14,15,16
 47 50 0 0 0
SMALL
GASTEIGER

@<TRIPOS>ATOM
      1 SI          2.9571    9.0513    2.6229 Si      1  UNL1        0.0000
      2 C           2.0881   10.7244    2.9087 C.3     1  UNL1        0.0000
      3 C           4.6030    9.3978    1.7232 C.3     1  UNL1        0.0000
      4 C           1.9218    7.7209    1.7620 C.3     1  UNL1        0.0000
      5 C           2.4849    6.5153    1.2451 C.2     1  UNL1        0.0000
      6 C           1.4537    5.5688    1.0686 C.2     1  UNL1        0.0000
      7 C           0.2472    6.1452    1.5284 C.3     1  UNL1        0.0000
      8 C           0.5349    7.4561    1.9855 C.3     1  UNL1        0.0000
      9 C          -0.5383    8.4194    2.4185 C.3     1  UNL1        0.0000
     10 C          -1.8676    7.6823    2.6184 C.3     1  UNL1        0.0000
     11 C          -2.1488    6.7392    1.4491 C.3     1  UNL1        0.0000
     12 C          -1.1449    5.5832    1.4482 C.3     1  UNL1        0.0000
     13 C           3.0876    8.0237    4.2069 C.3     1  UNL1        0.0000
     14 C           2.0362    7.9311    5.1662 C.3     1  UNL1        0.0000
     15 C           2.2492    6.7899    5.9688 C.2     1  UNL1        0.0000
     16 C           3.3998    6.1239    5.4871 C.2     1  UNL1        0.0000
     17 C           3.8996    6.8603    4.3831 C.3     1  UNL1        0.0000
     18 C           5.1983    6.5117    3.7074 C.3     1  UNL1        0.0000
     19 C           5.5903    5.0736    4.0600 C.3     1  UNL1        0.0000
     20 C           5.5355    4.8655    5.5736 C.3     1  UNL1        0.0000
     21 C           4.0879    4.9199    6.0702 C.3     1  UNL1        0.0000
     22 H           1.3032   10.6734    3.6542 H       1  UNL1        0.0000
     23 H           1.6482   11.0928    1.9885 H       1  UNL1        0.0000
     24 H           2.8096   11.4614    3.2442 H       1  UNL1        0.0000
     25 H           5.0089    8.5235    1.2279 H       1  UNL1        0.0000
     26 H           5.3521    9.7639    2.4168 H       1  UNL1        0.0000
     27 H           4.4562   10.1613    0.9671 H       1  UNL1        0.0000
     28 H           3.4992    6.3978    0.8803 H       1  UNL1        0.0000
     29 H           1.5502    4.6044    0.5838 H       1  UNL1        0.0000
     30 H          -0.2619    8.9329    3.3462 H       1  UNL1        0.0000
     31 H          -0.6603    9.1863    1.6440 H       1  UNL1        0.0000
     32 H          -2.6753    8.4108    2.7134 H       1  UNL1        0.0000
     33 H          -1.8233    7.0996    3.5417 H       1  UNL1        0.0000
     34 H          -3.1632    6.3453    1.5247 H       1  UNL1        0.0000
     35 H          -2.0673    7.2918    0.5096 H       1  UNL1        0.0000
     36 H          -1.2546    4.9827    0.5405 H       1  UNL1        0.0000
     37 H          -1.3443    4.9282    2.3059 H       1  UNL1        0.0000
     38 H           1.2867    8.6912    5.3572 H       1  UNL1        0.0000
     39 H           1.6839    6.5185    6.8527 H       1  UNL1        0.0000
     40 H           5.9808    7.1966    4.0562 H       1  UNL1        0.0000
     41 H           5.1296    6.6246    2.6208 H       1  UNL1        0.0000
     42 H           6.5973    4.8675    3.6917 H       1  UNL1        0.0000
     43 H           4.8979    4.3782    3.5756 H       1  UNL1        0.0000
     44 H           5.9757    3.9023    5.8349 H       1  UNL1        0.0000
     45 H           6.1189    5.6489    6.0643 H       1  UNL1        0.0000
     46 H           4.0642    4.9694    7.1629 H       1  UNL1        0.0000
     47 H           3.5668    4.0021    5.7705 H       1  UNL1        0.0000
@<TRIPOS>BOND
     1    35    11    1
     2    36    12    1
     3    29     6    1
     4    28     5    1
     5    27     3    1
     6     6     5    2
     7     6     7    1
     8    25     3    1
     9     5     4    1
    10    12    11    1
    11    12     7    1
    12    12    37    1
    13    11    34    1
    14    11    10    1
    15     7     8    1
    16    31     9    1
    17     3    26    1
    18     3     1    1
    19     4     8    1
    20     4     1    1
    21     8     9    1
    22    23     2    1
    23     9    10    1
    24     9    30    1
    25    10    32    1
    26    10    33    1
    27    41    18    1
    28     1     2    1
    29     1    13    1
    30     2    24    1
    31     2    22    1
    32    43    19    1
    33    42    19    1
    34    18    40    1
    35    18    19    1
    36    18    17    1
    37    19    20    1
    38    13    17    1
    39    13    14    1
    40    17    16    1
    41    14    38    1
    42    14    15    1
    43    16    15    2
    44    16    21    1
    45    20    44    1
    46    20    45    1
    47    20    21    1
    48    47    21    1
    49    15    39    1
    50    21    46    1
