@<TRIPOS>MOLECULE
2,3,4,5,6,7,8,9,10,11
 27 28 0 0 0
SMALL
GASTEIGER

@<TRIPOS>ATOM
      1 SI         -1.2579    7.5636   -0.3047 Si      1  UNL1        0.0000
      2 C           0.3927    8.3710    0.1579 C.3     1  UNL1        0.0000
      3 C           0.6121    9.2147    1.2739 C.3     1  UNL1        0.0000
      4 C           1.9838    9.1687    1.6107 C.2     1  UNL1        0.0000
      5 C           2.6209    8.2742    0.7250 C.2     1  UNL1        0.0000
      6 C           1.6434    7.7647   -0.1467 C.3     1  UNL1        0.0000
      7 C          -0.8222    6.1389    0.8642 C.3     1  UNL1        0.0000
      8 C          -1.1075    6.1157    2.2504 C.3     1  UNL1        0.0000
      9 C          -0.2151    5.2258    2.8839 C.2     1  UNL1        0.0000
     10 C           0.6448    4.7002    1.8983 C.2     1  UNL1        0.0000
     11 C           0.2934    5.2813    0.6658 C.3     1  UNL1        0.0000
     12 C          -1.3805    7.0636   -2.1355 C.3     1  UNL1        0.0000
     13 C          -2.7511    8.5679    0.3122 C.3     1  UNL1        0.0000
     14 H          -0.1203    9.8798    1.7177 H       1  UNL1        0.0000
     15 H           2.4849    9.8121    2.3231 H       1  UNL1        0.0000
     16 H           3.6878    8.0933    0.6666 H       1  UNL1        0.0000
     17 H           1.8435    7.1339   -1.0043 H       1  UNL1        0.0000
     18 H          -1.9400    6.6140    2.7320 H       1  UNL1        0.0000
     19 H          -0.2375    4.9356    3.9272 H       1  UNL1        0.0000
     20 H           1.3786    3.9184    2.0502 H       1  UNL1        0.0000
     21 H           0.7038    4.9933   -0.2941 H       1  UNL1        0.0000
     22 H          -1.4352    7.9435   -2.7674 H       1  UNL1        0.0000
     23 H          -2.2757    6.4766   -2.3100 H       1  UNL1        0.0000
     24 H          -0.5292    6.4745   -2.4601 H       1  UNL1        0.0000
     25 H          -2.8664    9.4803   -0.2632 H       1  UNL1        0.0000
     26 H          -3.6674    7.9967    0.2072 H       1  UNL1        0.0000
     27 H          -2.6466    8.8428    1.3583 H       1  UNL1        0.0000
@<TRIPOS>BOND
     1    22    12    1
     2    24    12    1
     3    23    12    1
     4    12     1    1
     5    17     6    1
     6     1     2    1
     7     1    13    1
     8     1     7    1
     9    21    11    1
    10    25    13    1
    11     6     2    1
    12     6     5    1
    13     2     3    1
    14    26    13    1
    15    13    27    1
    16    11     7    1
    17    11    10    1
    18    16     5    1
    19     5     4    2
    20     7     8    1
    21     3     4    1
    22     3    14    1
    23     4    15    1
    24    10    20    1
    25    10     9    2
    26     8    18    1
    27     8     9    1
    28     9    19    1
