@<TRIPOS>MOLECULE
2,3,4,6,13,30,31,32,33,39
 57 60 0 0 0
SMALL
GASTEIGER

@<TRIPOS>ATOM
      1 SI          5.7202   13.7542    3.4336 Si      1  UNL1        0.0000
      2 C           6.4106   12.4574    4.6544 C.3     1  UNL1        0.0000
      3 C           7.5574   11.6676    4.2876 C.3     1  UNL1        0.0000
      4 C           7.5838   10.4804    5.0430 C.3     1  UNL1        0.0000
      5 H           8.3851    9.7508    5.0411 H       1  UNL1        0.0000
      6 C           6.4631   10.4905    5.9221 C.ar    1  UNL1        0.0000
      7 C           6.0436    9.5305    6.8680 C.ar    1  UNL1        0.0000
      8 C           4.9631    9.8506    7.6534 C.ar    1  UNL1        0.0000
      9 H           4.5964    9.1418    8.3806 H       1  UNL1        0.0000
     10 C           4.3601   11.1121    7.5711 C.ar    1  UNL1        0.0000
     11 H           3.5818   11.3563    8.2802 H       1  UNL1        0.0000
     12 C           4.7384   12.0685    6.6523 C.ar    1  UNL1        0.0000
     13 C           5.7516   11.7314    5.7203 C.ar    1  UNL1        0.0000
     14 C           8.6193   11.9833    3.2704 C.3     1  UNL1        0.0000
     15 H           9.1470   12.9011    3.5300 H       1  UNL1        0.0000
     16 H           8.1985   12.0867    2.2681 H       1  UNL1        0.0000
     17 H           9.3463   11.1703    3.2435 H       1  UNL1        0.0000
     18 C           6.7641    8.2199    6.9567 C.3     1  UNL1        0.0000
     19 H           7.7992    8.3689    7.2649 H       1  UNL1        0.0000
     20 H           6.7667    7.7352    5.9770 H       1  UNL1        0.0000
     21 H           6.2781    7.5616    7.6718 H       1  UNL1        0.0000
     22 C           4.1668   13.4540    6.7660 C.3     1  UNL1        0.0000
     23 H           3.1790   13.5326    6.3130 H       1  UNL1        0.0000
     24 H           4.8289   14.1774    6.3015 H       1  UNL1        0.0000
     25 H           4.0575   13.7100    7.8184 H       1  UNL1        0.0000
     26 C           4.3247   15.0005    3.8470 C.3     1  UNL1        0.0000
     27 H           3.4427   14.5777    4.3048 H       1  UNL1        0.0000
     28 H           4.0124   15.4805    2.9238 H       1  UNL1        0.0000
     29 H           4.6963   15.7816    4.5013 H       1  UNL1        0.0000
     30 C           5.0298   12.4574    2.2129 C.3     1  UNL1        0.0000
     31 C           3.8831   11.6675    2.5798 C.3     1  UNL1        0.0000
     32 C           5.6887   11.7314    1.1470 C.ar    1  UNL1        0.0000
     33 C           3.8567   10.4803    1.8244 C.3     1  UNL1        0.0000
     34 C           2.8212   11.9832    3.5970 C.3     1  UNL1        0.0000
     35 H           2.2935   12.9010    3.3374 H       1  UNL1        0.0000
     36 H           3.2420   12.0866    4.5993 H       1  UNL1        0.0000
     37 H           2.0941   11.1703    3.6238 H       1  UNL1        0.0000
     38 H           3.0553    9.7508    1.8262 H       1  UNL1        0.0000
     39 C           4.9773   10.4904    0.9453 C.ar    1  UNL1        0.0000
     40 C           5.3968    9.5305   -0.0007 C.ar    1  UNL1        0.0000
     41 C           6.4773    9.8506   -0.7861 C.ar    1  UNL1        0.0000
     42 H           6.8440    9.1418   -1.5134 H       1  UNL1        0.0000
     43 C           7.0802   11.1121   -0.7038 C.ar    1  UNL1        0.0000
     44 H           7.8585   11.3563   -1.4129 H       1  UNL1        0.0000
     45 C           6.7019   12.0686    0.2150 C.ar    1  UNL1        0.0000
     46 C           7.2735   13.4540    0.1012 C.3     1  UNL1        0.0000
     47 H           8.2613   13.5327    0.5542 H       1  UNL1        0.0000
     48 H           6.6114   14.1774    0.5657 H       1  UNL1        0.0000
     49 H           7.3828   13.7100   -0.9511 H       1  UNL1        0.0000
     50 C           4.6763    8.2198   -0.0894 C.3     1  UNL1        0.0000
     51 H           3.6412    8.3689   -0.3975 H       1  UNL1        0.0000
     52 H           4.6737    7.7352    0.8903 H       1  UNL1        0.0000
     53 H           5.1623    7.5616   -0.8045 H       1  UNL1        0.0000
     54 C           7.1157   15.0005    3.0203 C.3     1  UNL1        0.0000
     55 H           7.9977   14.5777    2.5624 H       1  UNL1        0.0000
     56 H           7.4280   15.4805    3.9435 H       1  UNL1        0.0000
     57 H           6.7441   15.7816    2.3659 H       1  UNL1        0.0000
@<TRIPOS>BOND
     1    42    41    1
     2    44    43    1
     3    49    46    1
     4    53    50    1
     5    41    43   ar
     6    41    40   ar
     7    43    45   ar
     8    51    50    1
     9    50    40    1
    10    50    52    1
    11    40    39   ar
    12    46    45    1
    13    46    47    1
    14    46    48    1
    15    45    32   ar
    16    39    32   ar
    17    39    33    1
    18    32    30    1
    19    33    38    1
    20    33    31    1
    21    30    31    1
    22    30     1    1
    23    16    14    1
    24    57    54    1
    25    55    54    1
    26    31    34    1
    27    28    26    1
    28    54     1    1
    29    54    56    1
    30    17    14    1
    31    14    15    1
    32    14     3    1
    33    35    34    1
    34     1    26    1
    35     1     2    1
    36    34    37    1
    37    34    36    1
    38    26    27    1
    39    26    29    1
    40     3     2    1
    41     3     4    1
    42     2    13    1
    43     5     4    1
    44     4     6    1
    45    13     6   ar
    46    13    12   ar
    47     6     7   ar
    48    20    18    1
    49    24    22    1
    50    23    22    1
    51    12    22    1
    52    12    10   ar
    53    22    25    1
    54     7    18    1
    55     7     8   ar
    56    18    19    1
    57    18    21    1
    58    10     8   ar
    59    10    11    1
    60     8     9    1
