@<TRIPOS>MOLECULE
2,3,5,7,9,11,12,14,16,18
 27 28 0 0 0
SMALL
GASTEIGER

@<TRIPOS>ATOM
      1 SI          0.2731    4.8144    8.8213 Si      1  UNL1        0.0000
      2 C          -0.9822    3.6145    9.5672 C.3     1  UNL1        0.0000
      3 C          -1.3090    2.3527    9.0144 C.3     1  UNL1        0.0000
      4 H          -1.2605    2.0935    7.9627 H       1  UNL1        0.0000
      5 C          -1.8915    1.5549   10.0210 C.2     1  UNL1        0.0000
      6 H          -2.3476    0.5830    9.8812 H       1  UNL1        0.0000
      7 C          -1.8807    2.2955   11.2194 C.2     1  UNL1        0.0000
      8 H          -2.3312    1.9912   12.1556 H       1  UNL1        0.0000
      9 C          -1.2905    3.5470   10.9481 C.3     1  UNL1        0.0000
     10 H          -1.2301    4.3732   11.6480 H       1  UNL1        0.0000
     11 C           1.6820    3.7592    9.5103 C.3     1  UNL1        0.0000
     12 C           2.0506    3.7284   10.8776 C.3     1  UNL1        0.0000
     13 H           1.9305    4.5448   11.5811 H       1  UNL1        0.0000
     14 C           2.7805    2.5471   11.1229 C.2     1  UNL1        0.0000
     15 H           3.2992    2.2957   12.0395 H       1  UNL1        0.0000
     16 C           2.8224    1.8090    9.9233 C.2     1  UNL1        0.0000
     17 H           3.3747    0.8917    9.7630 H       1  UNL1        0.0000
     18 C           2.1192    2.5385    8.9423 C.3     1  UNL1        0.0000
     19 H           2.0564    2.2729    7.8929 H       1  UNL1        0.0000
     20 C           0.1946    6.5633    9.5716 C.3     1  UNL1        0.0000
     21 H           0.2252    6.5457   10.6560 H       1  UNL1        0.0000
     22 H          -0.7195    7.0662    9.2744 H       1  UNL1        0.0000
     23 H           1.0287    7.1650    9.2267 H       1  UNL1        0.0000
     24 C           0.2257    4.8774    6.9185 C.3     1  UNL1        0.0000
     25 H           0.2773    3.8887    6.4746 H       1  UNL1        0.0000
     26 H           1.0580    5.4572    6.5342 H       1  UNL1        0.0000
     27 H          -0.6895    5.3476    6.5748 H       1  UNL1        0.0000
@<TRIPOS>BOND
     1    25    24    1
     2    26    24    1
     3    27    24    1
     4    24     1    1
     5    19    18    1
     6     4     3    1
     7     1    11    1
     8     1     2    1
     9     1    20    1
    10    18    11    1
    11    18    16    1
    12     3     2    1
    13     3     5    1
    14    23    20    1
    15    22    20    1
    16    11    12    1
    17     2     9    1
    18    20    21    1
    19    17    16    1
    20     6     5    1
    21    16    14    2
    22     5     7    2
    23    12    14    1
    24    12    13    1
    25     9     7    1
    26     9    10    1
    27    14    15    1
    28     7     8    1
