@<TRIPOS>MOLECULE
3,5,6,8,10,11,13,15,17,19
 39 40 0 0 0
SMALL
GASTEIGER

@<TRIPOS>ATOM
      1 SI          1.7417   11.2452    8.0217 Si      1  UNL1        0.0000
      2 SI          2.4400   17.0537    7.5320 Si      1  UNL1        0.0000
      3 C           2.4332   14.1204    7.6773 C.3     1  UNL1        0.0000
      4 H           3.4619   13.9983    7.9958 H       1  UNL1        0.0000
      5 C           1.8846   15.2951    7.1121 C.3     1  UNL1        0.0000
      6 C           0.5460   14.9825    6.7509 C.2     1  UNL1        0.0000
      7 H          -0.1299   15.6418    6.2199 H       1  UNL1        0.0000
      8 C           0.3124   13.6263    7.0232 C.2     1  UNL1        0.0000
      9 H          -0.5793   13.0712    6.7603 H       1  UNL1        0.0000
     10 C           1.4745   13.0725    7.6160 C.3     1  UNL1        0.0000
     11 C           1.7085   16.4855   10.3319 C.2     1  UNL1        0.0000
     12 H           2.7178   16.4721   10.7251 H       1  UNL1        0.0000
     13 C           0.5435   16.1751   11.0682 C.3     1  UNL1        0.0000
     14 H           0.5118   15.8578   12.1029 H       1  UNL1        0.0000
     15 C          -0.5664   16.4281   10.2473 C.2     1  UNL1        0.0000
     16 H          -1.6047   16.3566   10.5437 H       1  UNL1        0.0000
     17 C          -0.0911   16.8645    8.9957 C.2     1  UNL1        0.0000
     18 H          -0.7135   17.2474    8.1964 H       1  UNL1        0.0000
     19 C           1.3276   16.9655    9.0587 C.2     1  UNL1        0.0000
     20 C           0.4602   10.6015    9.2776 C.3     1  UNL1        0.0000
     21 H           0.5559   11.1124   10.2321 H       1  UNL1        0.0000
     22 H           0.5860    9.5375    9.4543 H       1  UNL1        0.0000
     23 H          -0.5548   10.7617    8.9233 H       1  UNL1        0.0000
     24 C           3.5324   11.0062    8.6395 C.3     1  UNL1        0.0000
     25 H           3.7149   11.5761    9.5451 H       1  UNL1        0.0000
     26 H           4.2586   11.3150    7.8930 H       1  UNL1        0.0000
     27 H           3.7201    9.9612    8.8632 H       1  UNL1        0.0000
     28 C           1.5186   10.3117    6.3645 C.3     1  UNL1        0.0000
     29 H           1.7029    9.2517    6.5015 H       1  UNL1        0.0000
     30 H           2.2069   10.6694    5.6053 H       1  UNL1        0.0000
     31 H           0.5122   10.4210    5.9733 H       1  UNL1        0.0000
     32 C           4.2880   17.1531    7.9711 C.3     1  UNL1        0.0000
     33 H           4.9022   17.0150    7.0876 H       1  UNL1        0.0000
     34 H           4.5706   16.3955    8.6961 H       1  UNL1        0.0000
     35 H           4.5313   18.1235    8.3907 H       1  UNL1        0.0000
     36 C           1.9114   18.3633    6.2575 C.3     1  UNL1        0.0000
     37 H           2.1316   19.3610    6.6218 H       1  UNL1        0.0000
     38 H           0.8496   18.3180    6.0390 H       1  UNL1        0.0000
     39 H           2.4478   18.2272    5.3246 H       1  UNL1        0.0000
@<TRIPOS>BOND
     1    39    36    1
     2    30    28    1
     3    31    28    1
     4    38    36    1
     5     7     6    1
     6    36    37    1
     7    36     2    1
     8    28    29    1
     9    28     1    1
    10     6     8    2
    11     6     5    1
    12     9     8    1
    13     8    10    1
    14    33    32    1
    15     5     2    1
    16     5     3    1
    17     2    32    1
    18     2    19    1
    19    10     3    1
    20    10     1    1
    21     3     4    1
    22    26    24    1
    23    32    35    1
    24    32    34    1
    25     1    24    1
    26     1    20    1
    27    18    17    1
    28    24    27    1
    29    24    25    1
    30    23    20    1
    31    17    19    1
    32    17    15    2
    33    19    11    2
    34    20    22    1
    35    20    21    1
    36    15    16    1
    37    15    13    1
    38    11    12    1
    39    11    13    1
    40    13    14    1
