@<TRIPOS>MOLECULE
4,5,6,7,8,13,14,15,16,17
 61 62 0 0 0
SMALL
GASTEIGER

@<TRIPOS>ATOM
      1 SI          1.1221    6.7813    5.8431 Si      1  UNL1        0.0000
      2 SI          3.3413    4.9684    7.0594 Si      1  UNL1        0.0000
      3 O           2.1993    6.1323    6.9040 O.3     1  UNL1        0.0000
      4 C           1.4225    1.3221    6.6622 C.2     1  UNL1        0.0000
      5 C           1.5592    2.5828    7.2879 C.3     1  UNL1        0.0000
      6 C           2.5692    3.3215    6.6026 C.2     1  UNL1        0.0000
      7 C           3.0456    2.4760    5.5643 C.2     1  UNL1        0.0000
      8 C           2.3505    1.2503    5.5908 C.2     1  UNL1        0.0000
      9 C           2.7157    0.0433    4.7502 C.3     1  UNL1        0.0000
     10 C           1.6868   -1.0803    4.9060 C.3     1  UNL1        0.0000
     11 C           2.8140    0.4448    3.2717 C.3     1  UNL1        0.0000
     12 C           4.0860   -0.4647    5.2299 C.3     1  UNL1        0.0000
     13 C          -0.7212    4.5581    6.4657 C.2     1  UNL1        0.0000
     14 C          -0.0931    5.4015    5.4933 C.3     1  UNL1        0.0000
     15 C          -0.7285    5.1244    4.2527 C.2     1  UNL1        0.0000
     16 C          -1.7101    4.1469    4.4530 C.2     1  UNL1        0.0000
     17 C          -1.7180    3.7840    5.8218 C.2     1  UNL1        0.0000
     18 C          -2.6926    2.8476    6.5087 C.3     1  UNL1        0.0000
     19 C          -3.4565    3.6225    7.5928 C.3     1  UNL1        0.0000
     20 C          -1.9206    1.6842    7.1491 C.3     1  UNL1        0.0000
     21 C          -3.6928    2.2680    5.5043 C.3     1  UNL1        0.0000
     22 C           3.8494    5.0278    8.8912 C.3     1  UNL1        0.0000
     23 C           4.7747    5.3365    5.8651 C.3     1  UNL1        0.0000
     24 C           1.9936    7.3498    4.2523 C.3     1  UNL1        0.0000
     25 C           0.3261    8.2235    6.7961 C.3     1  UNL1        0.0000
     26 H           0.8297    0.4971    7.0340 H       1  UNL1        0.0000
     27 H           1.1193    2.8664    8.2373 H       1  UNL1        0.0000
     28 H           3.8855    2.7110    4.9245 H       1  UNL1        0.0000
     29 H           0.6953   -0.7330    4.6253 H       1  UNL1        0.0000
     30 H           1.6622   -1.4427    5.9313 H       1  UNL1        0.0000
     31 H           1.9530   -1.9143    4.2605 H       1  UNL1        0.0000
     32 H           3.5702    1.2127    3.1214 H       1  UNL1        0.0000
     33 H           1.8582    0.8277    2.9139 H       1  UNL1        0.0000
     34 H           3.0831   -0.4197    2.6680 H       1  UNL1        0.0000
     35 H           4.3781   -1.3467    4.6646 H       1  UNL1        0.0000
     36 H           4.0440   -0.7267    6.2849 H       1  UNL1        0.0000
     37 H           4.8480    0.2992    5.0977 H       1  UNL1        0.0000
     38 H          -0.5793    4.6597    7.5358 H       1  UNL1        0.0000
     39 H          -0.5405    5.6480    3.3234 H       1  UNL1        0.0000
     40 H          -2.3818    3.7782    3.6907 H       1  UNL1        0.0000
     41 H          -4.1946    2.9791    8.0666 H       1  UNL1        0.0000
     42 H          -3.9706    4.4738    7.1533 H       1  UNL1        0.0000
     43 H          -2.7802    3.9909    8.3602 H       1  UNL1        0.0000
     44 H          -1.2198    2.0474    7.9008 H       1  UNL1        0.0000
     45 H          -1.3831    1.1339    6.3727 H       1  UNL1        0.0000
     46 H          -2.6137    1.0004    7.6370 H       1  UNL1        0.0000
     47 H          -4.2776    3.0594    5.0422 H       1  UNL1        0.0000
     48 H          -4.3774    1.5911    6.0111 H       1  UNL1        0.0000
     49 H          -3.1712    1.7106    4.7291 H       1  UNL1        0.0000
     50 H           4.5838    4.2629    9.1169 H       1  UNL1        0.0000
     51 H           2.9997    4.8772    9.5489 H       1  UNL1        0.0000
     52 H           4.2844    5.9904    9.1358 H       1  UNL1        0.0000
     53 H           5.6049    4.6531    6.0083 H       1  UNL1        0.0000
     54 H           5.1497    6.3437    6.0150 H       1  UNL1        0.0000
     55 H           4.4486    5.2580    4.8312 H       1  UNL1        0.0000
     56 H           1.3439    7.9748    3.6490 H       1  UNL1        0.0000
     57 H           2.2948    6.5018    3.6423 H       1  UNL1        0.0000
     58 H           2.8828    7.9275    4.4825 H       1  UNL1        0.0000
     59 H          -0.4536    8.6948    6.2083 H       1  UNL1        0.0000
     60 H           1.0659    8.9796    7.0356 H       1  UNL1        0.0000
     61 H          -0.1170    7.8904    7.7287 H       1  UNL1        0.0000
@<TRIPOS>BOND
     1    34    11    1
     2    33    11    1
     3    32    11    1
     4    11     9    1
     5    39    15    1
     6    57    24    1
     7    56    24    1
     8    40    16    1
     9    24    58    1
    10    24     1    1
    11    15    16    2
    12    15    14    1
    13    31    10    1
    14    16    17    1
    15    29    10    1
    16    35    12    1
    17    49    21    1
    18     9    10    1
    19     9    12    1
    20     9     8    1
    21    55    23    1
    22    10    30    1
    23    28     7    1
    24    47    21    1
    25    37    12    1
    26    12    36    1
    27    14     1    1
    28    14    13    1
    29    21    48    1
    30    21    18    1
    31     7     8    1
    32     7     6    2
    33     8     4    2
    34    17    13    2
    35    17    18    1
    36     1    25    1
    37     1     3    1
    38    23    53    1
    39    23    54    1
    40    23     2    1
    41    59    25    1
    42    45    20    1
    43    13    38    1
    44    18    20    1
    45    18    19    1
    46     6     2    1
    47     6     5    1
    48     4    26    1
    49     4     5    1
    50    25    60    1
    51    25    61    1
    52     3     2    1
    53     2    22    1
    54    20    46    1
    55    20    44    1
    56    42    19    1
    57     5    27    1
    58    19    41    1
    59    19    43    1
    60    22    50    1
    61    22    52    1
    62    22    51    1
