@<TRIPOS>MOLECULE
4,5,10,11,16,17,18,23,24,29
 75 76 0 0 0
SMALL
GASTEIGER

@<TRIPOS>ATOM
      1 SI          7.4266    3.8283   18.1421 Si      1  UNL1        0.0000
      2 C           9.2052    3.1541   18.2798 C.3     1  UNL1        0.0000
      3 C           7.1484    4.9175   19.6827 C.3     1  UNL1        0.0000
      4 C           6.2017    2.4213   17.8062 C.3     1  UNL1        0.0000
      5 C           4.7705    2.4296   17.9368 C.3     1  UNL1        0.0000
      6 SI          3.6206    3.2134   19.2055 Si      1  UNL1        0.0000
      7 C           1.9213    2.3460   19.0816 C.3     1  UNL1        0.0000
      8 C           4.3224    2.8964   20.9557 C.3     1  UNL1        0.0000
      9 C           3.2460    5.0719   18.9520 C.3     1  UNL1        0.0000
     10 C           4.2815    1.3744   17.1172 C.2     1  UNL1        0.0000
     11 C           5.3503    0.7335   16.4603 C.2     1  UNL1        0.0000
     12 C           5.2177   -0.5803   15.7150 C.3     1  UNL1        0.0000
     13 C           6.3973   -0.8276   14.7708 C.3     1  UNL1        0.0000
     14 C           3.9150   -0.5967   14.9027 C.3     1  UNL1        0.0000
     15 C           5.1769   -1.7011   16.7683 C.3     1  UNL1        0.0000
     16 C           6.5300    1.4080   16.8609 C.3     1  UNL1        0.0000
     17 C           6.9440    4.7656   16.5670 C.3     1  UNL1        0.0000
     18 C           7.2713    4.4529   15.2030 C.3     1  UNL1        0.0000
     19 SI          8.8367    3.7815   14.3998 Si      1  UNL1        0.0000
     20 C           8.7471    4.1511   12.5261 C.3     1  UNL1        0.0000
     21 C          10.3455    4.7099   15.1193 C.3     1  UNL1        0.0000
     22 C           9.0895    1.8891   14.5158 C.3     1  UNL1        0.0000
     23 C           6.3039    5.1097   14.3923 C.2     1  UNL1        0.0000
     24 C           5.3725    5.7899   15.2011 C.2     1  UNL1        0.0000
     25 C           4.3666    6.7924   14.6698 C.3     1  UNL1        0.0000
     26 C           5.1251    8.1048   14.4059 C.3     1  UNL1        0.0000
     27 C           3.7578    6.2827   13.3557 C.3     1  UNL1        0.0000
     28 C           3.2395    7.0615   15.6704 C.3     1  UNL1        0.0000
     29 C           5.7511    5.5432   16.5438 C.3     1  UNL1        0.0000
     30 H           9.5600    2.6999   17.3635 H       1  UNL1        0.0000
     31 H           9.8944    3.9484   18.5445 H       1  UNL1        0.0000
     32 H           9.2562    2.4064   19.0648 H       1  UNL1        0.0000
     33 H           6.1099    5.1829   19.8340 H       1  UNL1        0.0000
     34 H           7.4946    4.4099   20.5762 H       1  UNL1        0.0000
     35 H           7.7181    5.8367   19.5914 H       1  UNL1        0.0000
     36 H           1.2337    2.7439   19.8217 H       1  UNL1        0.0000
     37 H           1.4749    2.5055   18.1043 H       1  UNL1        0.0000
     38 H           1.9936    1.2760   19.2503 H       1  UNL1        0.0000
     39 H           3.7555    3.4477   21.6982 H       1  UNL1        0.0000
     40 H           4.2584    1.8437   21.2106 H       1  UNL1        0.0000
     41 H           5.3615    3.1892   21.0456 H       1  UNL1        0.0000
     42 H           2.3656    5.3466   19.5252 H       1  UNL1        0.0000
     43 H           4.0482    5.7276   19.2753 H       1  UNL1        0.0000
     44 H           3.0287    5.2742   17.9069 H       1  UNL1        0.0000
     45 H           3.2497    1.0525   17.0928 H       1  UNL1        0.0000
     46 H           6.2785   -1.7905   14.2782 H       1  UNL1        0.0000
     47 H           6.4338   -0.0565   14.0045 H       1  UNL1        0.0000
     48 H           7.3386   -0.8447   15.3151 H       1  UNL1        0.0000
     49 H           3.8807   -1.4823   14.2718 H       1  UNL1        0.0000
     50 H           3.0444   -0.6164   15.5543 H       1  UNL1        0.0000
     51 H           3.8521    0.2843   14.2632 H       1  UNL1        0.0000
     52 H           5.0517   -2.6677   16.2854 H       1  UNL1        0.0000
     53 H           6.1015   -1.7158   17.3413 H       1  UNL1        0.0000
     54 H           4.3506   -1.5477   17.4585 H       1  UNL1        0.0000
     55 H           7.5389    1.0972   16.6324 H       1  UNL1        0.0000
     56 H           9.6472    3.8085   12.0249 H       1  UNL1        0.0000
     57 H           7.9055    3.6381   12.0698 H       1  UNL1        0.0000
     58 H           8.6478    5.2127   12.3216 H       1  UNL1        0.0000
     59 H          11.2697    4.2516   14.7842 H       1  UNL1        0.0000
     60 H          10.3542    5.7433   14.7890 H       1  UNL1        0.0000
     61 H          10.3507    4.7158   16.2026 H       1  UNL1        0.0000
     62 H           9.8328    1.5769   13.7883 H       1  UNL1        0.0000
     63 H           9.4401    1.5534   15.4865 H       1  UNL1        0.0000
     64 H           8.1654    1.3692   14.2787 H       1  UNL1        0.0000
     65 H           6.3491    5.1605   13.3134 H       1  UNL1        0.0000
     66 H           4.4518    8.8529   13.9935 H       1  UNL1        0.0000
     67 H           5.5483    8.4900   15.3310 H       1  UNL1        0.0000
     68 H           5.9373    7.9422   13.7012 H       1  UNL1        0.0000
     69 H           2.9495    6.9392   13.0405 H       1  UNL1        0.0000
     70 H           4.4993    6.2597   12.5605 H       1  UNL1        0.0000
     71 H           3.3545    5.2779   13.4856 H       1  UNL1        0.0000
     72 H           2.5575    7.8060   15.2647 H       1  UNL1        0.0000
     73 H           2.6758    6.1500   15.8560 H       1  UNL1        0.0000
     74 H           3.6317    7.4444   16.6097 H       1  UNL1        0.0000
     75 H           5.3175    6.0126   17.4146 H       1  UNL1        0.0000
@<TRIPOS>BOND
     1    56    20    1
     2    57    20    1
     3    58    20    1
     4    20    19    1
     5    70    27    1
     6    69    27    1
     7    65    23    1
     8    27    71    1
     9    27    25    1
    10    68    26    1
    11    62    22    1
    12    66    26    1
    13    47    13    1
    14    51    14    1
    15    49    14    1
    16    46    13    1
    17    64    22    1
    18    23    24    2
    19    23    18    1
    20    19    22    1
    21    19    21    1
    22    19    18    1
    23    26    25    1
    24    26    67    1
    25    22    63    1
    26    25    24    1
    27    25    28    1
    28    13    48    1
    29    13    12    1
    30    59    21    1
    31    60    21    1
    32    14    50    1
    33    14    12    1
    34    21    61    1
    35    24    29    1
    36    18    17    1
    37    72    28    1
    38    28    73    1
    39    28    74    1
    40    12    11    1
    41    12    15    1
    42    52    15    1
    43    11    16    1
    44    11    10    2
    45    29    17    1
    46    29    75    1
    47    17     1    1
    48    55    16    1
    49    15    53    1
    50    15    54    1
    51    16     4    1
    52    45    10    1
    53    10     5    1
    54    30     2    1
    55     4     5    1
    56     4     1    1
    57    44     9    1
    58     5     6    1
    59    37     7    1
    60     1     2    1
    61     1     3    1
    62     2    31    1
    63     2    32    1
    64     9     6    1
    65     9    43    1
    66     9    42    1
    67     7     6    1
    68     7    38    1
    69     7    36    1
    70     6     8    1
    71    35     3    1
    72     3    33    1
    73     3    34    1
    74     8    41    1
    75     8    40    1
    76     8    39    1
