@<TRIPOS>MOLECULE
4,5,6,7,8,9,10,11,12,13
 75 76 0 0 0
SMALL
GASTEIGER

@<TRIPOS>ATOM
      1 SI          2.6311    2.6126    9.9949 Si      1  UNL1        0.0000
      2 SI         -1.1976    3.1953   10.9607 Si      1  UNL1        0.0000
      3 SI          3.9868    2.7333    6.2433 Si      1  UNL1        0.0000
      4 C           1.3891    3.9858    9.5987 C.3     1  UNL1        0.0000
      5 C          -0.0453    3.9320    9.6578 C.3     1  UNL1        0.0000
      6 C          -0.5144    5.0141    8.8549 C.2     1  UNL1        0.0000
      7 C           0.5668    5.7204    8.3023 C.2     1  UNL1        0.0000
      8 C           1.7337    5.0351    8.7103 C.3     1  UNL1        0.0000
      9 C           2.1021    1.7434    8.3983 C.3     1  UNL1        0.0000
     10 C           2.3909    2.1136    7.0418 C.3     1  UNL1        0.0000
     11 C           1.4286    1.4390    6.2335 C.2     1  UNL1        0.0000
     12 C           0.5601    0.6797    7.0351 C.2     1  UNL1        0.0000
     13 C           0.9396    0.9314    8.3734 C.3     1  UNL1        0.0000
     14 C           0.4650    7.0728    7.6326 C.3     1  UNL1        0.0000
     15 C           1.6632    7.3580    6.7235 C.3     1  UNL1        0.0000
     16 C          -0.8256    7.1803    6.8113 C.3     1  UNL1        0.0000
     17 C           0.4344    8.1178    8.7630 C.3     1  UNL1        0.0000
     18 C          -0.3948   -0.3741    6.5197 C.3     1  UNL1        0.0000
     19 C          -1.5144   -0.6749    7.5194 C.3     1  UNL1        0.0000
     20 C          -1.0148    0.0551    5.1845 C.3     1  UNL1        0.0000
     21 C           0.4392   -1.6503    6.3034 C.3     1  UNL1        0.0000
     22 C          -0.4712    3.6685   12.6672 C.3     1  UNL1        0.0000
     23 C          -1.5535    1.3187   10.8765 C.3     1  UNL1        0.0000
     24 C          -2.9063    4.0359   10.7903 C.3     1  UNL1        0.0000
     25 C           4.4033    4.5926    6.4020 C.3     1  UNL1        0.0000
     26 C           3.8689    2.4003    4.3644 C.3     1  UNL1        0.0000
     27 C           5.4156    1.6745    6.9518 C.3     1  UNL1        0.0000
     28 C           4.4049    3.2930   10.1420 C.3     1  UNL1        0.0000
     29 C           2.3447    1.5016   11.5167 C.3     1  UNL1        0.0000
     30 H          -1.5522    5.3057    8.7815 H       1  UNL1        0.0000
     31 H           2.7457    5.3529    8.5127 H       1  UNL1        0.0000
     32 H           1.4442    1.4330    5.1533 H       1  UNL1        0.0000
     33 H           0.5194    0.4497    9.2425 H       1  UNL1        0.0000
     34 H           1.7076    6.6240    5.9228 H       1  UNL1        0.0000
     35 H           1.5611    8.3458    6.2786 H       1  UNL1        0.0000
     36 H           2.5946    7.3368    7.2845 H       1  UNL1        0.0000
     37 H          -0.8379    8.1183    6.2603 H       1  UNL1        0.0000
     38 H          -1.7034    7.1555    7.4529 H       1  UNL1        0.0000
     39 H          -0.8912    6.3602    6.0984 H       1  UNL1        0.0000
     40 H          -0.4098    7.9399    9.4259 H       1  UNL1        0.0000
     41 H           0.3430    9.1177    8.3444 H       1  UNL1        0.0000
     42 H           1.3479    8.0690    9.3520 H       1  UNL1        0.0000
     43 H          -2.1674   -1.4482    7.1194 H       1  UNL1        0.0000
     44 H          -1.1106   -1.0317    8.4641 H       1  UNL1        0.0000
     45 H          -2.1081    0.2189    7.6951 H       1  UNL1        0.0000
     46 H          -1.4888    1.0302    5.2821 H       1  UNL1        0.0000
     47 H          -0.2625    0.1100    4.4010 H       1  UNL1        0.0000
     48 H          -1.7690   -0.6660    4.8767 H       1  UNL1        0.0000
     49 H          -0.1915   -2.4469    5.9148 H       1  UNL1        0.0000
     50 H           1.2434   -1.4664    5.5943 H       1  UNL1        0.0000
     51 H           0.8796   -1.9813    7.2417 H       1  UNL1        0.0000
     52 H          -1.0762    3.2510   13.4650 H       1  UNL1        0.0000
     53 H           0.5445    3.3139   12.7991 H       1  UNL1        0.0000
     54 H          -0.4593    4.7463   12.7966 H       1  UNL1        0.0000
     55 H          -2.3869    1.0798   11.5305 H       1  UNL1        0.0000
     56 H          -0.7187    0.7000   11.1899 H       1  UNL1        0.0000
     57 H          -1.8361    1.0294    9.8690 H       1  UNL1        0.0000
     58 H          -3.5961    3.6528   11.5364 H       1  UNL1        0.0000
     59 H          -2.8488    5.1118   10.9252 H       1  UNL1        0.0000
     60 H          -3.3413    3.8407    9.8144 H       1  UNL1        0.0000
     61 H           5.2086    4.8403    5.7168 H       1  UNL1        0.0000
     62 H           4.7328    4.8833    7.3946 H       1  UNL1        0.0000
     63 H           3.5463    5.2020    6.1325 H       1  UNL1        0.0000
     64 H           3.0394    2.9467    3.9248 H       1  UNL1        0.0000
     65 H           4.7747    2.7225    3.8597 H       1  UNL1        0.0000
     66 H           3.7330    1.3457    4.1441 H       1  UNL1        0.0000
     67 H           5.3231    0.6389    6.6401 H       1  UNL1        0.0000
     68 H           5.4427    1.6864    8.0355 H       1  UNL1        0.0000
     69 H           6.3711    2.0408    6.5911 H       1  UNL1        0.0000
     70 H           4.7609    3.7499    9.2274 H       1  UNL1        0.0000
     71 H           4.4489    4.0402   10.9283 H       1  UNL1        0.0000
     72 H           5.0964    2.5010   10.4088 H       1  UNL1        0.0000
     73 H           2.6964    1.9904   12.4189 H       1  UNL1        0.0000
     74 H           2.9062    0.5786   11.4083 H       1  UNL1        0.0000
     75 H           1.3035    1.2432   11.6632 H       1  UNL1        0.0000
@<TRIPOS>BOND
     1    65    26    1
     2    64    26    1
     3    66    26    1
     4    26     3    1
     5    47    20    1
     6    48    20    1
     7    32    11    1
     8    20    46    1
     9    20    18    1
    10    50    21    1
    11    61    25    1
    12    49    21    1
    13    34    15    1
    14    39    16    1
    15    63    25    1
    16    11    12    2
    17    11    10    1
    18     3    25    1
    19     3    27    1
    20     3    10    1
    21    37    16    1
    22    35    15    1
    23    21    18    1
    24    21    51    1
    25    25    62    1
    26    18    12    1
    27    18    19    1
    28    69    27    1
    29    67    27    1
    30    15    36    1
    31    15    14    1
    32    16    38    1
    33    16    14    1
    34    27    68    1
    35    12    13    1
    36    10     9    1
    37    43    19    1
    38    19    45    1
    39    19    44    1
    40    14     7    1
    41    14    17    1
    42     7     8    1
    43     7     6    2
    44    41    17    1
    45    13     9    1
    46    13    33    1
    47     9     1    1
    48    31     8    1
    49     8     4    1
    50    17    42    1
    51    17    40    1
    52    30     6    1
    53     6     5    1
    54    70    28    1
    55     4     5    1
    56     4     1    1
    57     5     2    1
    58    60    24    1
    59    57    23    1
    60     1    28    1
    61     1    29    1
    62    28    72    1
    63    28    71    1
    64    24    59    1
    65    24     2    1
    66    24    58    1
    67    23     2    1
    68    23    56    1
    69    23    55    1
    70     2    22    1
    71    74    29    1
    72    29    75    1
    73    29    73    1
    74    22    54    1
    75    22    53    1
    76    22    52    1
