@<TRIPOS>MOLECULE
11,12,13,14,27,32,33,38,39
 51 56 0 0 0
SMALL
GASTEIGER

@<TRIPOS>ATOM
      1 SI         -0.5686   -0.7936    3.2510 Si      1  UNL1        0.0000
      2 C          -3.4973    1.1298    3.8803 C.ar    1  UNL1        0.0000
      3 C          -4.5080    2.0349    4.1108 C.ar    1  UNL1        0.0000
      4 C          -4.3505    3.1051    5.0013 C.ar    1  UNL1        0.0000
      5 C          -3.1583    3.2949    5.6643 C.ar    1  UNL1        0.0000
      6 C          -0.1138    3.1138    6.9371 C.ar    1  UNL1        0.0000
      7 C           1.1653    2.7697    7.3128 C.ar    1  UNL1        0.0000
      8 C           1.7882    1.6371    6.7725 C.ar    1  UNL1        0.0000
      9 C           1.1515    0.8317    5.8569 C.ar    1  UNL1        0.0000
     10 C          -1.0679    0.4779    4.5622 C.3     1  UNL1        0.0000
     11 C          -2.2652    1.2727    4.5526 C.ar    1  UNL1        0.0000
     12 C          -2.1024    2.4072    5.4378 C.ar    1  UNL1        0.0000
     13 C          -0.7800    2.3295    5.9913 C.ar    1  UNL1        0.0000
     14 C          -0.1520    1.1561    5.4350 C.ar    1  UNL1        0.0000
     15 C          -1.9548   -2.0100    2.7325 C.3     1  UNL1        0.0000
     16 H          -3.6759    0.2852    3.2298 H       1  UNL1        0.0000
     17 H          -5.4555    1.9125    3.6055 H       1  UNL1        0.0000
     18 H          -5.1768    3.7793    5.1684 H       1  UNL1        0.0000
     19 H          -3.0395    4.1125    6.3629 H       1  UNL1        0.0000
     20 H          -0.6050    3.9721    7.3755 H       1  UNL1        0.0000
     21 H           1.6937    3.3651    8.0420 H       1  UNL1        0.0000
     22 H           2.7862    1.3840    7.1009 H       1  UNL1        0.0000
     23 H           1.6289   -0.0717    5.5072 H       1  UNL1        0.0000
     24 H          -1.9638   -2.8544    3.4138 H       1  UNL1        0.0000
     25 H          -2.9518   -1.5884    2.7381 H       1  UNL1        0.0000
     26 H          -1.7618   -2.3968    1.7370 H       1  UNL1        0.0000
     27 C          -0.0692    0.4778    1.9396 C.3     1  UNL1        0.0000
     28 C           0.8176   -2.0100    3.7693 C.3     1  UNL1        0.0000
     29 H           0.8277   -2.8538    3.0871 H       1  UNL1        0.0000
     30 H           1.8145   -1.5881    3.7654 H       1  UNL1        0.0000
     31 H           0.6235   -2.3979    4.7642 H       1  UNL1        0.0000
     32 C           1.1281    1.2725    1.9491 C.ar    1  UNL1        0.0000
     33 C           0.9653    2.4071    1.0641 C.ar    1  UNL1        0.0000
     34 C           2.0211    3.2949    0.8377 C.ar    1  UNL1        0.0000
     35 C           3.2133    3.1051    1.5006 C.ar    1  UNL1        0.0000
     36 C           3.3710    2.0347    2.3909 C.ar    1  UNL1        0.0000
     37 C           2.3603    1.1295    2.6214 C.ar    1  UNL1        0.0000
     38 C          -0.3571    2.3294    0.5105 C.ar    1  UNL1        0.0000
     39 C          -0.9850    1.1560    1.0669 C.ar    1  UNL1        0.0000
     40 C          -2.2886    0.8316    0.6451 C.ar    1  UNL1        0.0000
     41 C          -2.9253    1.6369   -0.2706 C.ar    1  UNL1        0.0000
     42 C          -2.3025    2.7695   -0.8109 C.ar    1  UNL1        0.0000
     43 C          -1.0234    3.1137   -0.4353 C.ar    1  UNL1        0.0000
     44 H          -0.5322    3.9720   -0.8737 H       1  UNL1        0.0000
     45 H          -2.8308    3.3649   -1.5402 H       1  UNL1        0.0000
     46 H          -3.9232    1.3838   -0.5990 H       1  UNL1        0.0000
     47 H          -2.7660   -0.0718    0.9948 H       1  UNL1        0.0000
     48 H           2.5389    0.2849    3.2718 H       1  UNL1        0.0000
     49 H           4.3184    1.9123    2.8962 H       1  UNL1        0.0000
     50 H           4.0397    3.7792    1.3334 H       1  UNL1        0.0000
     51 H           1.9024    4.1125    0.1390 H       1  UNL1        0.0000
@<TRIPOS>BOND
     1    45    42    1
     2    44    43    1
     3    42    43   ar
     4    42    41   ar
     5    46    41    1
     6    43    38   ar
     7    41    40   ar
     8    51    34    1
     9    38    33    1
    10    38    39   ar
    11    40    47    1
    12    40    39   ar
    13    34    33   ar
    14    34    35   ar
    15    33    32   ar
    16    39    27    1
    17    50    35    1
    18    35    36   ar
    19    26    15    1
    20    27    32    1
    21    27     1    1
    22    32    37   ar
    23    36    37   ar
    24    36    49    1
    25    37    48    1
    26    15    25    1
    27    15     1    1
    28    15    24    1
    29    29    28    1
    30    16     2    1
    31     1    28    1
    32     1    10    1
    33    17     3    1
    34    30    28    1
    35    28    31    1
    36     2     3   ar
    37     2    11   ar
    38     3     4   ar
    39    11    10    1
    40    11    12   ar
    41    10    14    1
    42     4    18    1
    43     4     5   ar
    44    14     9   ar
    45    14    13   ar
    46    12     5   ar
    47    12    13    1
    48    23     9    1
    49     5    19    1
    50     9     8   ar
    51    13     6   ar
    52     8    22    1
    53     8     7   ar
    54     6     7   ar
    55     6    20    1
    56     7    21    1
