@<TRIPOS>MOLECULE
1,2
 16 16 0 0 0
SMALL
GASTEIGER

@<TRIPOS>ATOM
      1 N           5.2973    2.2660    6.4100 N.pl3   1  UNL1       -0.1294
      2 C           4.7962    1.2960    7.1873 C.ar    1  UNL1        0.0726
      3 C           5.6316    0.4685    7.9643 C.ar    1  UNL1       -0.0337
      4 H           6.6991    0.6332    7.9208 H       1  UNL1        0.0638
      5 C           5.1007   -0.5226    8.7524 C.ar    1  UNL1       -0.0181
      6 H           5.7351   -1.1581    9.3497 H       1  UNL1        0.0655
      7 C           3.7196   -0.7369    8.8034 C.ar    1  UNL1        0.1202
      8 C           2.8807    0.0674    8.0367 C.ar    1  UNL1       -0.0181
      9 H           1.8113   -0.0740    8.0511 H       1  UNL1        0.0655
     10 C           3.4118    1.0647    7.2438 C.ar    1  UNL1       -0.0337
     11 H           2.7671    1.6961    6.6453 H       1  UNL1        0.0638
     12 C           1.9255   -2.0006    9.7270 C.3     1  UNL1        0.0788
     13 H           1.8317   -2.8274   10.4294 H       1  UNL1        0.0660
     14 H           1.4959   -2.2953    8.7639 H       1  UNL1        0.0660
     15 H           1.3836   -1.1326   10.1165 H       1  UNL1        0.0660
     16 O           3.3044   -1.7444    9.6221 O.3     1  UNL1       -0.4951
@<TRIPOS>BOND
     1     1     2    1
     2    11    10    1
     3     2    10   ar
     4     2     3   ar
     5    10     8   ar
     6     4     3    1
     7     3     5   ar
     8     8     9    1
     9     8     7   ar
    10     5     7   ar
    11     5     6    1
    12    14    12    1
    13     7    16    1
    14    16    12    1
    15    12    15    1
    16    12    13    1
