@<TRIPOS>MOLECULE
1,2
 12 12 0 0 0
SMALL
GASTEIGER

@<TRIPOS>ATOM
      1 N           4.4523    7.4603    9.1948 N.pl3   1  UNL1       -0.1294
      2 C           3.3086    6.7855    9.3898 C.ar    1  UNL1        0.0724
      3 C           2.8912    6.3150   10.6479 C.ar    1  UNL1       -0.0372
      4 C           1.7050    5.6222   10.7813 C.ar    1  UNL1       -0.0599
      5 C           0.9015    5.3769    9.6797 C.ar    1  UNL1       -0.0616
      6 C           1.2939    5.8387    8.4306 C.ar    1  UNL1       -0.0599
      7 C           2.4741    6.5323    8.2804 C.ar    1  UNL1       -0.0372
      8 H           3.5109    6.5047   11.5121 H       1  UNL1        0.0637
      9 H           1.4025    5.2682   11.7565 H       1  UNL1        0.0618
     10 H          -0.0238    4.8324    9.7921 H       1  UNL1        0.0618
     11 H           0.6686    5.6531    7.5692 H       1  UNL1        0.0618
     12 H           2.8009    6.9052    7.3163 H       1  UNL1        0.0637
@<TRIPOS>BOND
     1    12     7    1
     2    11     6    1
     3     7     6   ar
     4     7     2   ar
     5     6     5   ar
     6     1     2    1
     7     2     3   ar
     8     5    10    1
     9     5     4   ar
    10     3     4   ar
    11     3     8    1
    12     4     9    1
