@<TRIPOS>MOLECULE
1,2
 18 18 0 0 0
SMALL
GASTEIGER

@<TRIPOS>ATOM
      1 N          10.4100    2.7275    2.3487 N.pl3   1  UNL1       -0.1288
      2 C          11.7036    3.0758    2.3431 C.ar    1  UNL1        0.0782
      3 C          12.2712    3.6797    1.1921 C.ar    1  UNL1       -0.0257
      4 C          13.6051    4.0390    1.1971 C.ar    1  UNL1       -0.0570
      5 H          14.0325    4.4989    0.3171 H       1  UNL1        0.0621
      6 C          14.4009    3.8192    2.3105 C.ar    1  UNL1       -0.0611
      7 H          15.4416    4.1056    2.2971 H       1  UNL1        0.0618
      8 C          13.8542    3.2325    3.4380 C.ar    1  UNL1       -0.0570
      9 H          14.4713    3.0607    4.3086 H       1  UNL1        0.0621
     10 C          12.5229    2.8576    3.4749 C.ar    1  UNL1       -0.0257
     11 C          11.4032    3.9149   -0.0056 C.3     1  UNL1       -0.0378
     12 H          11.9654    4.3988   -0.8001 H       1  UNL1        0.0278
     13 H          11.0057    2.9675   -0.3778 H       1  UNL1        0.0278
     14 H          10.5510    4.5452    0.2616 H       1  UNL1        0.0278
     15 C          11.9387    2.2281    4.7040 C.3     1  UNL1       -0.0378
     16 H          11.9349    2.9401    5.5290 H       1  UNL1        0.0278
     17 H          10.9172    1.9126    4.4989 H       1  UNL1        0.0278
     18 H          12.5308    1.3670    5.0091 H       1  UNL1        0.0278
@<TRIPOS>BOND
     1    12    11    1
     2    13    11    1
     3    11    14    1
     4    11     3    1
     5     5     4    1
     6     3     4   ar
     7     3     2   ar
     8     4     6   ar
     9     7     6    1
    10     6     8   ar
    11     2     1    1
    12     2    10   ar
    13     8    10   ar
    14     8     9    1
    15    10    15    1
    16    17    15    1
    17    15    18    1
    18    15    16    1
