@<TRIPOS>MOLECULE
1,2
 14 13 0 0 0
SMALL
GASTEIGER

@<TRIPOS>ATOM
      1 N           3.4594   11.2442    9.5241 N.3     1  UNL1       -0.1371
      2 C           3.3989   10.0406   10.2584 C.3     1  UNL1        0.0466
      3 C           2.0369    9.3675   10.0059 C.3     1  UNL1       -0.0443
      4 H           1.2536   10.1157   10.1257 H       1  UNL1        0.0248
      5 H           1.8770    8.5527   10.7067 H       1  UNL1        0.0248
      6 H           1.9898    8.9809    8.9923 H       1  UNL1        0.0248
      7 C           4.5578    9.1015    9.8837 C.3     1  UNL1       -0.0443
      8 H           4.4648    8.7820    8.8490 H       1  UNL1        0.0248
      9 H           4.5559    8.2238   10.5241 H       1  UNL1        0.0248
     10 H           5.5010    9.6314    9.9996 H       1  UNL1        0.0248
     11 C           3.5060   10.4282   11.7482 C.3     1  UNL1       -0.0443
     12 H           4.4639   10.9133   11.9264 H       1  UNL1        0.0248
     13 H           3.4243    9.5500   12.3827 H       1  UNL1        0.0248
     14 H           2.7027   11.1259   11.9853 H       1  UNL1        0.0248
@<TRIPOS>BOND
     1     8     7    1
     2     6     3    1
     3     1     2    1
     4     7    10    1
     5     7     2    1
     6     7     9    1
     7     3     4    1
     8     3     2    1
     9     3     5    1
    10     2    11    1
    11    11    12    1
    12    11    14    1
    13    11    13    1
