@<TRIPOS>MOLECULE
1,2
 12 12 0 0 0
SMALL
GASTEIGER

@<TRIPOS>ATOM
      1 N           0.5647    1.9977    3.5231 N.pl3   1  UNL1       -0.1294
      2 C           0.9889    1.0166    2.7150 C.ar    1  UNL1        0.0724
      3 C           2.3618    0.7239    2.6082 C.ar    1  UNL1       -0.0372
      4 C           2.8003   -0.2889    1.7821 C.ar    1  UNL1       -0.0599
      5 C           1.8933   -1.0347    1.0435 C.ar    1  UNL1       -0.0616
      6 C           0.5367   -0.7619    1.1415 C.ar    1  UNL1       -0.0599
      7 C           0.0820    0.2467    1.9637 C.ar    1  UNL1       -0.0372
      8 H           3.0532    1.3194    3.1916 H       1  UNL1        0.0637
      9 H           3.8569   -0.5020    1.7091 H       1  UNL1        0.0618
     10 H           2.2420   -1.8249    0.3963 H       1  UNL1        0.0618
     11 H          -0.1701   -1.3450    0.5695 H       1  UNL1        0.0618
     12 H          -0.9730    0.4676    2.0539 H       1  UNL1        0.0637
@<TRIPOS>BOND
     1    10     5    1
     2    11     6    1
     3     5     6   ar
     4     5     4   ar
     5     6     7   ar
     6     9     4    1
     7     4     3   ar
     8     7    12    1
     9     7     2   ar
    10     3     2   ar
    11     3     8    1
    12     2     1    1
