@<TRIPOS>MOLECULE
2,4,5,14,15,24,35,36,45,46,47,59
 66 69 0 0 0
SMALL
GASTEIGER

@<TRIPOS>ATOM
      1 N          15.4151    4.5615    4.3287 N.3     1  UNL1        0.0000
      2 N          13.4777    2.1185    2.0598 N.3     1  UNL1        0.0000
      3 SI         10.2563    6.3683    1.2894 Si      1  UNL1        0.0000
      4 C          12.1420    6.5044    1.2854 C.3     1  UNL1        0.0000
      5 C          13.0831    5.7519    0.5181 C.ar    1  UNL1        0.0000
      6 C          12.9931    5.1473   -0.7444 C.ar    1  UNL1        0.0000
      7 H          12.0523    5.1482   -1.2754 H       1  UNL1        0.0000
      8 C          14.1162    4.5996   -1.3186 C.ar    1  UNL1        0.0000
      9 H          14.0541    4.1482   -2.2992 H       1  UNL1        0.0000
     10 C          15.3594    4.6337   -0.6651 C.ar    1  UNL1        0.0000
     11 H          16.2228    4.2101   -1.1595 H       1  UNL1        0.0000
     12 C          15.4947    5.2126    0.5740 C.ar    1  UNL1        0.0000
     13 H          16.4646    5.2671    1.0511 H       1  UNL1        0.0000
     14 C          14.1969    6.5253    2.4027 C.3     1  UNL1        0.0000
     15 C          12.8455    6.9534    2.4293 C.3     1  UNL1        0.0000
     16 H          12.4477    7.6492    3.1610 H       1  UNL1        0.0000
     17 C          15.2293    6.9583    3.4053 C.3     1  UNL1        0.0000
     18 H          14.7107    7.5283    4.1818 H       1  UNL1        0.0000
     19 H          15.9437    7.6409    2.9302 H       1  UNL1        0.0000
     20 C          16.3000    3.7765    5.1764 C.3     1  UNL1        0.0000
     21 H          16.4848    4.2580    6.1494 H       1  UNL1        0.0000
     22 H          17.2601    3.6388    4.6762 H       1  UNL1        0.0000
     23 H          15.8646    2.7948    5.3623 H       1  UNL1        0.0000
     24 C          14.0192    4.6390    4.8520 C.3     1  UNL1        0.0000
     25 H          13.9215    5.5458    5.4828 H       1  UNL1        0.0000
     26 H          13.9056    3.7979    5.5582 H       1  UNL1        0.0000
     27 C           9.4668    6.0603   -0.4174 C.3     1  UNL1        0.0000
     28 H           9.8140    6.7907   -1.1401 H       1  UNL1        0.0000
     29 H           8.3877    6.1474   -0.3508 H       1  UNL1        0.0000
     30 H           9.6914    5.0736   -0.8052 H       1  UNL1        0.0000
     31 C           9.4440    7.9287    2.0252 C.3     1  UNL1        0.0000
     32 H           9.3509    8.6982    1.2663 H       1  UNL1        0.0000
     33 H          10.0203    8.3456    2.8432 H       1  UNL1        0.0000
     34 H           8.4489    7.7077    2.3962 H       1  UNL1        0.0000
     35 C          10.1678    4.8321    2.3838 C.2     1  UNL1        0.0000
     36 C          10.3565    4.7578    3.8005 C.3     1  UNL1        0.0000
     37 C          10.1968    5.6969    4.8361 C.2     1  UNL1        0.0000
     38 H           9.8944    6.7092    4.6045 H       1  UNL1        0.0000
     39 C          10.3736    5.3037    6.1413 C.2     1  UNL1        0.0000
     40 H          10.2413    6.0198    6.9401 H       1  UNL1        0.0000
     41 C          10.6956    3.9768    6.4699 C.2     1  UNL1        0.0000
     42 H          10.7966    3.7054    7.5111 H       1  UNL1        0.0000
     43 C          10.8638    3.0234    5.4958 C.2     1  UNL1        0.0000
     44 H          11.0776    1.9953    5.7640 H       1  UNL1        0.0000
     45 C          10.7194    3.3883    4.1440 C.2     1  UNL1        0.0000
     46 C          10.7823    2.6510    2.9237 C.2     1  UNL1        0.0000
     47 C          10.4589    3.5403    1.8862 C.2     1  UNL1        0.0000
     48 H          10.3254    3.2555    0.8511 H       1  UNL1        0.0000
     49 C          11.2222    1.2256    2.7650 C.3     1  UNL1        0.0000
     50 H          10.8726    0.8353    1.8066 H       1  UNL1        0.0000
     51 H          10.7912    0.5990    3.5508 H       1  UNL1        0.0000
     52 C          12.7570    1.1024    2.8594 C.3     1  UNL1        0.0000
     53 H          13.0543    1.2375    3.9057 H       1  UNL1        0.0000
     54 H          13.0629    0.0927    2.5408 H       1  UNL1        0.0000
     55 C          13.2296    1.8742    0.6319 C.3     1  UNL1        0.0000
     56 H          13.5092    0.8473    0.3594 H       1  UNL1        0.0000
     57 H          13.8188    2.5689    0.0334 H       1  UNL1        0.0000
     58 H          12.1797    2.0230    0.3950 H       1  UNL1        0.0000
     59 C          14.3679    5.7776    1.1960 C.ar    1  UNL1        0.0000
     60 C          16.0654    5.8468    4.0714 C.3     1  UNL1        0.0000
     61 H          16.9304    5.6209    3.4367 H       1  UNL1        0.0000
     62 H          16.4582    6.2690    5.0145 H       1  UNL1        0.0000
     63 C          14.9210    1.9451    2.2805 C.3     1  UNL1        0.0000
     64 H          15.4688    2.6966    1.7103 H       1  UNL1        0.0000
     65 H          15.2503    0.9475    1.9570 H       1  UNL1        0.0000
     66 H          15.1589    2.0663    3.3354 H       1  UNL1        0.0000
@<TRIPOS>BOND
     1     9     8    1
     2     8     6   ar
     3     8    10   ar
     4     7     6    1
     5    11    10    1
     6    28    27    1
     7    30    27    1
     8     6     5   ar
     9    10    12   ar
    10    27    29    1
    11    27     3    1
    12    57    55    1
    13    56    55    1
    14    58    55    1
    15     5    59   ar
    16     5     4    1
    17    12    13    1
    18    12    59   ar
    19    55     2    1
    20    48    47    1
    21    59    14    1
    22    32    31    1
    23     4     3    1
    24     4    15    1
    25     3    31    1
    26     3    35    1
    27    64    63    1
    28    50    49    1
    29    47    35    2
    30    47    46    1
    31    65    63    1
    32    31    34    1
    33    31    33    1
    34     2    63    1
    35     2    52    1
    36    63    66    1
    37    35    36    1
    38    14    15    1
    39    14    17    1
    40    15    16    1
    41    54    52    1
    42    49    52    1
    43    49    46    1
    44    49    51    1
    45    52    53    1
    46    46    45    2
    47    19    17    1
    48    17    60    1
    49    17    18    1
    50    61    60    1
    51    36    45    1
    52    36    37    1
    53    60     1    1
    54    60    62    1
    55    45    43    1
    56     1    24    1
    57     1    20    1
    58    38    37    1
    59    22    20    1
    60    37    39    2
    61    24    25    1
    62    24    26    1
    63    20    23    1
    64    20    21    1
    65    43    44    1
    66    43    41    2
    67    39    41    1
    68    39    40    1
    69    41    42    1
