@<TRIPOS>MOLECULE
4,5,19,20
 56 57 0 0 0
SMALL
GASTEIGER

@<TRIPOS>ATOM
      1 SI          4.3527    7.7103    5.5747 Si      1  UNL1        0.0000
      2 SI          1.4694    2.9540    7.9929 Si      1  UNL1        0.0000
      3 C           3.1922    6.7199    6.6007 C.1     1  UNL1        0.0000
      4 C           2.3789    6.1888    7.3511 C.1     1  UNL1        0.0000
      5 C           1.4430    5.8220    8.2867 C.2     1  UNL1        0.0000
      6 C           0.9582    4.6327    8.7191 C.2     1  UNL1        0.0000
      7 C          -0.0698    2.1074    7.2332 C.3     1  UNL1        0.0000
      8 H           0.1781    1.1165    6.8646 H       1  UNL1        0.0000
      9 H          -0.4600    2.6783    6.3954 H       1  UNL1        0.0000
     10 H          -0.8688    2.0019    7.9597 H       1  UNL1        0.0000
     11 C           2.2495    1.8466    9.3428 C.3     1  UNL1        0.0000
     12 H           2.5050    0.8715    8.9390 H       1  UNL1        0.0000
     13 H           1.5730    1.6940   10.1770 H       1  UNL1        0.0000
     14 H           3.1616    2.2875    9.7344 H       1  UNL1        0.0000
     15 C           2.7550    3.1992    6.6060 C.3     1  UNL1        0.0000
     16 H           3.0330    2.2433    6.1728 H       1  UNL1        0.0000
     17 H           3.6589    3.6705    6.9766 H       1  UNL1        0.0000
     18 H           2.3701    3.8250    5.8078 H       1  UNL1        0.0000
     19 C          -0.0132    4.7051    9.8286 C.2     1  UNL1        0.0000
     20 C          -0.3498    5.9358   10.3394 C.2     1  UNL1        0.0000
     21 C          -0.5598    3.4985   10.3157 C.1     1  UNL1        0.0000
     22 C          -1.0756    2.4865   10.7344 C.1     1  UNL1        0.0000
     23 C          -1.6383    1.3014   11.2470 C.ar    1  UNL1        0.0000
     24 C          -2.5308    1.3573   12.3208 C.ar    1  UNL1        0.0000
     25 H          -2.7860    2.3183   12.7445 H       1  UNL1        0.0000
     26 C          -3.0740    0.1937   12.8280 C.ar    1  UNL1        0.0000
     27 H          -3.7636    0.2408   13.6587 H       1  UNL1        0.0000
     28 C          -2.7388   -1.0333   12.2764 C.ar    1  UNL1        0.0000
     29 H          -3.1670   -1.9407   12.6764 H       1  UNL1        0.0000
     30 C          -1.8535   -1.0944   11.2111 C.ar    1  UNL1        0.0000
     31 H          -1.5921   -2.0510   10.7818 H       1  UNL1        0.0000
     32 C          -1.3031    0.0620   10.6951 C.ar    1  UNL1        0.0000
     33 H          -0.6114    0.0222    9.8659 H       1  UNL1        0.0000
     34 C          -1.1038    6.1186   11.5689 C.ar    1  UNL1        0.0000
     35 C          -0.9508    5.2830   12.6861 C.ar    1  UNL1        0.0000
     36 H          -0.2811    4.4384   12.6219 H       1  UNL1        0.0000
     37 C          -1.6239    5.5388   13.8638 C.ar    1  UNL1        0.0000
     38 H          -1.4875    4.8808   14.7104 H       1  UNL1        0.0000
     39 C          -2.4711    6.6304   13.9696 C.ar    1  UNL1        0.0000
     40 H          -3.0009    6.8235   14.8904 H       1  UNL1        0.0000
     41 C          -2.6227    7.4812   12.8850 C.ar    1  UNL1        0.0000
     42 H          -3.2728    8.3417   12.9644 H       1  UNL1        0.0000
     43 C          -1.9404    7.2409   11.7091 C.ar    1  UNL1        0.0000
     44 H          -2.0638    7.9213   10.8661 H       1  UNL1        0.0000
     45 C           4.9690    6.7012    4.0798 C.3     1  UNL1        0.0000
     46 H           5.4935    5.8071    4.4028 H       1  UNL1        0.0000
     47 H           5.6512    7.2782    3.4617 H       1  UNL1        0.0000
     48 H           4.1427    6.3847    3.4503 H       1  UNL1        0.0000
     49 C           5.8272    8.2297    6.6716 C.3     1  UNL1        0.0000
     50 H           5.4993    8.7939    7.5398 H       1  UNL1        0.0000
     51 H           6.5328    8.8481    6.1240 H       1  UNL1        0.0000
     52 H           6.3662    7.3595    7.0337 H       1  UNL1        0.0000
     53 C           3.4311    9.2730    4.9640 C.3     1  UNL1        0.0000
     54 H           2.6481    9.0161    4.2561 H       1  UNL1        0.0000
     55 H           4.1047    9.9646    4.4659 H       1  UNL1        0.0000
     56 H           2.9650    9.8065    5.7884 H       1  UNL1        0.0000
@<TRIPOS>BOND
     1    48    45    1
     2    47    45    1
     3    45    46    1
     4    45     1    1
     5    54    53    1
     6    55    53    1
     7    53     1    1
     8    53    56    1
     9     1     3    1
    10     1    49    1
    11    18    15    1
    12    51    49    1
    13    16    15    1
    14     9     7    1
    15     3     4    3
    16    15    17    1
    17    15     2    1
    18    49    52    1
    19    49    50    1
    20     8     7    1
    21     7    10    1
    22     7     2    1
    23     4     5    1
    24     2     6    1
    25     2    11    1
    26     5     6    2
    27     6    19    1
    28    12    11    1
    29    11    14    1
    30    11    13    1
    31    19    21    1
    32    19    20    2
    33    33    32    1
    34    21    22    3
    35    20    34    1
    36    32    30   ar
    37    32    23   ar
    38    22    23    1
    39    31    30    1
    40    44    43    1
    41    30    28   ar
    42    23    24   ar
    43    34    43   ar
    44    34    35   ar
    45    43    41   ar
    46    28    29    1
    47    28    26   ar
    48    24    25    1
    49    24    26   ar
    50    36    35    1
    51    35    37   ar
    52    26    27    1
    53    41    42    1
    54    41    39   ar
    55    37    39   ar
    56    37    38    1
    57    39    40    1
