@<TRIPOS>MOLECULE
1,3,5,9
 10 10 0 0 0
SMALL
GASTEIGER

@<TRIPOS>ATOM
      1 C           3.4890    7.7288   15.7224 C.2     1  UNL1       -0.0763
      2 H           3.3746    7.1760   14.8001 H       1  UNL1        0.0578
      3 C           2.9468    7.3626   16.9812 C.3     1  UNL1        0.0054
      4 H           2.3408    6.4852   17.1757 H       1  UNL1        0.0394
      5 C           3.0925    8.4743   17.8483 C.2     1  UNL1       -0.0763
      6 H           2.6562    8.5681   18.8329 H       1  UNL1        0.0578
      7 C           3.7346    9.5038   17.1374 C.2     1  UNL1       -0.0654
      8 H           3.8952   10.5112   17.4905 H       1  UNL1        0.0615
      9 C           3.9983    9.0421   15.8310 C.2     1  UNL1       -0.0654
     10 H           4.3624    9.6429   15.0077 H       1  UNL1        0.0615
@<TRIPOS>BOND
     1     2     1    1
     2    10     9    1
     3     1     9    2
     4     1     3    1
     5     9     7    1
     6     3     4    1
     7     3     5    1
     8     7     8    1
     9     7     5    2
    10     5     6    1
