@<TRIPOS>MOLECULE
3,9,10,12
 35 34 0 0 0
SMALL
GASTEIGER

@<TRIPOS>ATOM
      1 O           4.9346    7.6156   10.1079 O.3     1  UNL1        0.0000
      2 SI          6.2804    8.5265   10.3554 Si      1  UNL1        0.0000
      3 C           2.4671    5.5467   11.3801 C.3     1  UNL1        0.0000
      4 H           1.9075    5.2742   12.2782 H       1  UNL1        0.0000
      5 H           2.5921    4.6467   10.7770 H       1  UNL1        0.0000
      6 C           3.8246    6.1562   11.7048 C.3     1  UNL1        0.0000
      7 H           3.9540    6.3720   12.7697 H       1  UNL1        0.0000
      8 H           4.6569    5.5291   11.3820 H       1  UNL1        0.0000
      9 C           3.8494    7.4570   10.9168 C.3     1  UNL1        0.0000
     10 C           3.0774    8.5353   11.3324 C.3     1  UNL1        0.0000
     11 H           3.2608    9.5080   10.8850 H       1  UNL1        0.0000
     12 C           1.9061    8.2937   12.1032 C.3     1  UNL1        0.0000
     13 H           1.2776    9.1592   12.2972 H       1  UNL1        0.0000
     14 H           1.9822    7.6344   12.9640 H       1  UNL1        0.0000
     15 C           6.0575   10.3187    9.7464 C.3     1  UNL1        0.0000
     16 H           5.6983   10.3485    8.7231 H       1  UNL1        0.0000
     17 H           6.9924   10.8683    9.7841 H       1  UNL1        0.0000
     18 H           5.3412   10.8606   10.3583 H       1  UNL1        0.0000
     19 C           6.6627    8.5809   12.2262 C.3     1  UNL1        0.0000
     20 H           5.8240    9.0125   12.7665 H       1  UNL1        0.0000
     21 H           7.5374    9.1822   12.4491 H       1  UNL1        0.0000
     22 H           6.8318    7.5879   12.6332 H       1  UNL1        0.0000
     23 C           7.6204    7.5715    9.3629 C.3     1  UNL1        0.0000
     24 C           7.2322    7.4696    7.8866 C.3     1  UNL1        0.0000
     25 H           7.9812    6.9021    7.3340 H       1  UNL1        0.0000
     26 H           7.1560    8.4566    7.4378 H       1  UNL1        0.0000
     27 H           6.2728    6.9714    7.7717 H       1  UNL1        0.0000
     28 C           7.8003    6.1547    9.9141 C.3     1  UNL1        0.0000
     29 H           6.8644    5.6037    9.8623 H       1  UNL1        0.0000
     30 H           8.1317    6.1784   10.9499 H       1  UNL1        0.0000
     31 H           8.5457    5.6134    9.3316 H       1  UNL1        0.0000
     32 C           8.9551    8.3081    9.4691 C.3     1  UNL1        0.0000
     33 H           9.7288    7.7768    8.9156 H       1  UNL1        0.0000
     34 H           9.2726    8.3875   10.5059 H       1  UNL1        0.0000
     35 H           8.8752    9.3116    9.0594 H       1  UNL1        0.0000
@<TRIPOS>BOND
     1    25    24    1
     2    26    24    1
     3    27    24    1
     4    24    23    1
     5    16    15    1
     6    33    32    1
     7    35    32    1
     8    31    28    1
     9    23    32    1
    10    23    28    1
    11    23     2    1
    12    32    34    1
    13    15    17    1
    14    15     2    1
    15    15    18    1
    16    29    28    1
    17    28    30    1
    18     1     2    1
    19     1     9    1
    20     2    19    1
    21     5     3    1
    22    11    10    1
    23     9    10    1
    24     9     6    1
    25    10    12    1
    26     3     6    1
    27     3     4    1
    28     8     6    1
    29     6     7    1
    30    12    13    1
    31    12    14    1
    32    19    21    1
    33    19    22    1
    34    19    20    1
