@<TRIPOS>MOLECULE
1,2,3,5
 10 10 0 0 0
SMALL
GASTEIGER

@<TRIPOS>ATOM
      1 C           3.7805    2.8234    5.3483 C.2     1  UNL1       -0.0763
      2 C           4.1844    4.1165    4.9126 C.2     1  UNL1       -0.0654
      3 C           5.5961    4.1418    4.9151 C.2     1  UNL1       -0.0654
      4 C           6.0560    2.9026    5.3650 C.2     1  UNL1       -0.0763
      5 C           4.9552    2.0813    5.6116 C.3     1  UNL1        0.0054
      6 H           2.7820    2.5605    5.6823 H       1  UNL1        0.0578
      7 H           3.5378    4.9853    4.8504 H       1  UNL1        0.0615
      8 H           6.2046    5.0026    4.6809 H       1  UNL1        0.0615
      9 H           7.0909    2.6225    5.4881 H       1  UNL1        0.0578
     10 H           4.9821    1.0786    6.0123 H       1  UNL1        0.0394
@<TRIPOS>BOND
     1     8     3    1
     2     7     2    1
     3     2     3    1
     4     2     1    2
     5     3     4    2
     6     1     5    1
     7     1     6    1
     8     4     9    1
     9     4     5    1
    10     5    10    1
