@<TRIPOS>MOLECULE
1,3,5,7
 30 31 0 0 0
SMALL
GASTEIGER

@<TRIPOS>ATOM
      1 C           3.8116    0.3459    6.6946 C.3     1  UNL1        0.0124
      2 H           4.6201    0.9907    7.0658 H       1  UNL1        0.0400
      3 C           4.2662   -0.9423    6.1125 C.2     1  UNL1       -0.0791
      4 H           3.9764   -1.8793    6.5941 H       1  UNL1        0.0575
      5 C           5.0444   -0.9446    4.9874 C.2     1  UNL1       -0.0791
      6 H           5.4045   -1.8825    4.5600 H       1  UNL1        0.0575
      7 C           5.4063    0.3356    4.3344 C.3     1  UNL1        0.0124
      8 H           5.9891    1.0238    4.9629 H       1  UNL1        0.0400
      9 C           2.6200    0.3210    7.5180 C.ar    1  UNL1       -0.0397
     10 C           1.5143   -0.4561    7.1118 C.ar    1  UNL1       -0.0580
     11 H           1.5791   -1.0036    6.1678 H       1  UNL1        0.0620
     12 C           0.3630   -0.5046    7.8705 C.ar    1  UNL1       -0.0615
     13 H          -0.4687   -1.1173    7.5496 H       1  UNL1        0.0618
     14 C           0.2560    0.2384    9.0388 C.ar    1  UNL1       -0.0617
     15 H          -0.6480    0.2024    9.6271 H       1  UNL1        0.0618
     16 C           1.3192    1.0346    9.4366 C.ar    1  UNL1       -0.0615
     17 H           1.2406    1.6217   10.3409 H       1  UNL1        0.0618
     18 C           2.4846    1.0723    8.6974 C.ar    1  UNL1       -0.0580
     19 H           3.3145    1.6810    9.0327 H       1  UNL1        0.0620
     20 C           5.7982    0.3087    2.9408 C.ar    1  UNL1       -0.0397
     21 C           5.1812   -0.5885    2.0454 C.ar    1  UNL1       -0.0580
     22 H           4.4274   -1.2746    2.4258 H       1  UNL1        0.0620
     23 C           5.5191   -0.6057    0.7076 C.ar    1  UNL1       -0.0615
     24 H           5.0389   -1.3093    0.0408 H       1  UNL1        0.0618
     25 C           6.4647    0.2774    0.2061 C.ar    1  UNL1       -0.0617
     26 H           6.7203    0.2664   -0.8424 H       1  UNL1        0.0618
     27 C           7.0815    1.1703    1.0693 C.ar    1  UNL1       -0.0615
     28 H           7.8268    1.8555    0.6898 H       1  UNL1        0.0618
     29 C           6.7648    1.1819    2.4121 C.ar    1  UNL1       -0.0580
     30 H           7.2762    1.8655    3.0774 H       1  UNL1        0.0620
@<TRIPOS>BOND
     1    26    25    1
     2    24    23    1
     3    25    23   ar
     4    25    27   ar
     5    28    27    1
     6    23    21   ar
     7    27    29   ar
     8    21    22    1
     9    21    20   ar
    10    29    20   ar
    11    29    30    1
    12    20     7    1
    13     7     8    1
    14     7     5    1
    15     6     5    1
    16     5     3    2
    17     3     4    1
    18     3     1    1
    19    11    10    1
    20     1     2    1
    21     1     9    1
    22    10     9   ar
    23    10    12   ar
    24     9    18   ar
    25    13    12    1
    26    12    14   ar
    27    18    19    1
    28    18    16   ar
    29    14    16   ar
    30    14    15    1
    31    16    17    1
