@<TRIPOS>MOLECULE
7,8,9,10
 34 34 0 0 0
SMALL
GASTEIGER

@<TRIPOS>ATOM
      1 SI          1.5762   -0.8101    6.2106 Si      1  UNL1        0.0000
      2 C           1.5935   -1.6046    4.4608 C.3     1  UNL1        0.0000
      3 H           0.8051   -2.3439    4.3579 H       1  UNL1        0.0000
      4 H           2.5318   -2.1113    4.2547 H       1  UNL1        0.0000
      5 H           1.4454   -0.8513    3.6912 H       1  UNL1        0.0000
      6 C           1.9440    2.0856    6.7734 C.3     1  UNL1        0.0000
      7 C           1.2530    1.0407    6.0915 C.3     1  UNL1        0.0000
      8 C          -0.0605    1.5543    5.7862 C.3     1  UNL1        0.0000
      9 C           1.1047    3.2204    6.8518 C.2     1  UNL1        0.0000
     10 C          -0.1472    2.8805    6.2801 C.2     1  UNL1        0.0000
     11 C          -1.3887    3.7188    6.3731 C.3     1  UNL1        0.0000
     12 H          -2.1833    3.3095    5.7526 H       1  UNL1        0.0000
     13 H          -1.1973    4.7443    6.0541 H       1  UNL1        0.0000
     14 H          -1.7403    3.7426    7.4080 H       1  UNL1        0.0000
     15 C           1.3536    4.4316    7.7042 C.3     1  UNL1        0.0000
     16 H           0.6743    5.2403    7.4445 H       1  UNL1        0.0000
     17 H           2.3754    4.7956    7.6120 H       1  UNL1        0.0000
     18 H           1.1868    4.1785    8.7553 H       1  UNL1        0.0000
     19 C          -1.2603    0.7139    5.4559 C.3     1  UNL1        0.0000
     20 H          -1.7233    0.3748    6.3858 H       1  UNL1        0.0000
     21 H          -0.9837   -0.1603    4.8738 H       1  UNL1        0.0000
     22 H          -2.0056    1.2858    4.9058 H       1  UNL1        0.0000
     23 C           3.1531    1.9097    7.6433 C.3     1  UNL1        0.0000
     24 H           3.6216    2.8631    7.8739 H       1  UNL1        0.0000
     25 H           3.8865    1.2426    7.2054 H       1  UNL1        0.0000
     26 H           2.8332    1.4696    8.5917 H       1  UNL1        0.0000
     27 C           3.1690   -1.3782    7.1155 C.3     1  UNL1        0.0000
     28 H           3.1682   -1.0657    8.1541 H       1  UNL1        0.0000
     29 H           4.0909   -1.0287    6.6654 H       1  UNL1        0.0000
     30 H           3.2024   -2.4642    7.1066 H       1  UNL1        0.0000
     31 C           0.1990   -1.6496    7.2563 C.3     1  UNL1        0.0000
     32 H           0.5604   -2.5807    7.6827 H       1  UNL1        0.0000
     33 H          -0.6824   -1.8846    6.6699 H       1  UNL1        0.0000
     34 H          -0.1148   -1.0156    8.0803 H       1  UNL1        0.0000
@<TRIPOS>BOND
     1     5     2    1
     2     4     2    1
     3     3     2    1
     4     2     1    1
     5    21    19    1
     6    22    19    1
     7    19     8    1
     8    19    20    1
     9    12    11    1
    10     8     7    1
    11     8    10    1
    12    13    11    1
    13     7     1    1
    14     7     6    1
    15     1    27    1
    16     1    31    1
    17    10    11    1
    18    10     9    2
    19    11    14    1
    20    29    27    1
    21    33    31    1
    22     6     9    1
    23     6    23    1
    24     9    15    1
    25    30    27    1
    26    27    28    1
    27    25    23    1
    28    31    32    1
    29    31    34    1
    30    16    15    1
    31    17    15    1
    32    23    24    1
    33    23    26    1
    34    15    18    1
