@<TRIPOS>MOLECULE
1,2,7,13
 49 51 0 0 0
SMALL
GASTEIGER

@<TRIPOS>ATOM
      1 C          12.1971   12.4689    8.8691 C.3     1  UNL1        0.0329
      2 C          12.4037   13.8614    8.5703 C.ar    1  UNL1       -0.0248
      3 C          11.8554   14.6897    7.5589 C.ar    1  UNL1       -0.0426
      4 C          12.3709   15.9648    7.3913 C.ar    1  UNL1       -0.0441
      5 C          13.2340   16.5335    8.3582 C.ar    1  UNL1       -0.0438
      6 C          13.6865   15.7858    9.4368 C.ar    1  UNL1       -0.0393
      7 C          13.4135   14.3974    9.4573 C.ar    1  UNL1       -0.0098
      8 C          13.9456   13.2895   10.2188 C.ar    1  UNL1       -0.0098
      9 C          15.1497   13.1163   10.9320 C.ar    1  UNL1       -0.0393
     10 C          15.3982   11.8985   11.5499 C.ar    1  UNL1       -0.0438
     11 C          14.5435   10.7895   11.3546 C.ar    1  UNL1       -0.0441
     12 C          13.4331   10.8816   10.5295 C.ar    1  UNL1       -0.0426
     13 C          13.1382   12.1275    9.9111 C.ar    1  UNL1       -0.0248
     14 C          11.7318   11.4748    7.8203 C.3     1  UNL1       -0.0503
     15 H          11.9063   11.8918    6.8298 H       1  UNL1        0.0242
     16 H          10.6765   11.1982    7.8842 H       1  UNL1        0.0242
     17 H          12.3250   10.5650    7.8808 H       1  UNL1        0.0242
     18 C          10.7281   14.2157    6.6779 C.3     1  UNL1       -0.0391
     19 H          10.0283   15.0283    6.4893 H       1  UNL1        0.0278
     20 H          10.1829   13.4052    7.1508 H       1  UNL1        0.0278
     21 H          11.0958   13.8652    5.7116 H       1  UNL1        0.0278
     22 C          11.9187   16.8033    6.2273 C.3     1  UNL1       -0.0392
     23 H          11.6561   16.1805    5.3770 H       1  UNL1        0.0278
     24 H          12.7032   17.4835    5.9095 H       1  UNL1        0.0278
     25 H          11.0456   17.4004    6.4970 H       1  UNL1        0.0278
     26 C          13.5906   17.9895    8.2230 C.3     1  UNL1       -0.0392
     27 H          14.1664   18.3454    9.0687 H       1  UNL1        0.0278
     28 H          12.6926   18.6005    8.1377 H       1  UNL1        0.0278
     29 H          14.1913   18.1490    7.3270 H       1  UNL1        0.0278
     30 C          14.2944   16.4764   10.6319 C.3     1  UNL1       -0.0389
     31 H          13.6525   17.3076   10.9244 H       1  UNL1        0.0278
     32 H          15.2894   16.8740   10.4356 H       1  UNL1        0.0278
     33 H          14.3456   15.7891   11.4703 H       1  UNL1        0.0278
     34 C          16.2437   14.1474   10.8789 C.3     1  UNL1       -0.0389
     35 H          17.2008   13.6481   10.7382 H       1  UNL1        0.0278
     36 H          16.3111   14.7461   11.7868 H       1  UNL1        0.0278
     37 H          16.0844   14.8029   10.0299 H       1  UNL1        0.0278
     38 C          16.6172   11.7388   12.4188 C.3     1  UNL1       -0.0392
     39 H          16.9560   12.6994   12.7943 H       1  UNL1        0.0278
     40 H          17.4395   11.2790   11.8675 H       1  UNL1        0.0278
     41 H          16.3949   11.1097   13.2770 H       1  UNL1        0.0278
     42 C          14.9291    9.4803   11.9917 C.3     1  UNL1       -0.0392
     43 H          14.3967    8.6438   11.5543 H       1  UNL1        0.0278
     44 H          14.7206    9.4939   13.0623 H       1  UNL1        0.0278
     45 H          15.9933    9.2978   11.8596 H       1  UNL1        0.0278
     46 C          12.5625    9.6728   10.2873 C.3     1  UNL1       -0.0391
     47 H          12.3767    9.1402   11.2172 H       1  UNL1        0.0278
     48 H          13.0372    8.9796    9.5900 H       1  UNL1        0.0278
     49 H          11.6010    9.9651    9.8822 H       1  UNL1        0.0278
@<TRIPOS>BOND
     1    23    22    1
     2    21    18    1
     3    24    22    1
     4    22    25    1
     5    22     4    1
     6    19    18    1
     7    18    20    1
     8    18     3    1
     9    15    14    1
    10    29    26    1
    11     4     3   ar
    12     4     5   ar
    13     3     2   ar
    14    14    17    1
    15    14    16    1
    16    14     1    1
    17    28    26    1
    18    26     5    1
    19    26    27    1
    20     5     6   ar
    21     2     1    1
    22     2     7   ar
    23     1    13    1
    24     6     7   ar
    25     6    30    1
    26     7     8    1
    27    48    46    1
    28    49    46    1
    29    13     8   ar
    30    13    12   ar
    31    37    34    1
    32     8     9   ar
    33    46    12    1
    34    46    47    1
    35    32    30    1
    36    12    11   ar
    37    30    31    1
    38    30    33    1
    39    35    34    1
    40    34     9    1
    41    34    36    1
    42     9    10   ar
    43    11    10   ar
    44    11    42    1
    45    10    38    1
    46    43    42    1
    47    45    42    1
    48    40    38    1
    49    42    44    1
    50    38    39    1
    51    38    41    1
