@<TRIPOS>MOLECULE
1,2,3,11
 20 20 0 0 0
SMALL
GASTEIGER

@<TRIPOS>ATOM
      1 C          11.6489    9.6594   14.7230 C.2     1  UNL1       -0.0697
      2 C          10.4720   10.4285   14.7241 C.2     1  UNL1       -0.0697
      3 C          10.6055   11.8420   14.4953 C.3     1  UNL1       -0.0134
      4 H           9.7077   12.4329   14.6711 H       1  UNL1        0.0351
      5 C          11.8498   12.4391   15.1431 C.3     1  UNL1       -0.0454
      6 H          11.8083   12.2932   16.2340 H       1  UNL1        0.0271
      7 H          11.8981   13.5169   14.9563 H       1  UNL1        0.0271
      8 C          13.0988   11.7539   14.5767 C.3     1  UNL1       -0.0454
      9 H          13.4172   12.2731   13.6525 H       1  UNL1        0.0271
     10 H          13.9330   11.8537   15.2836 H       1  UNL1        0.0271
     11 C          12.8503   10.2748   14.2821 C.3     1  UNL1       -0.0134
     12 H          13.7540    9.6667   14.3085 H       1  UNL1        0.0351
     13 C          11.5966    8.1769   14.9831 C.3     1  UNL1       -0.0433
     14 H          11.0044    7.6592   14.2271 H       1  UNL1        0.0275
     15 H          11.1385    7.9857   15.9546 H       1  UNL1        0.0275
     16 H          12.5965    7.7478   14.9851 H       1  UNL1        0.0275
     17 C           9.1291    9.7968   14.9737 C.3     1  UNL1       -0.0433
     18 H           8.9685    8.9317   14.3288 H       1  UNL1        0.0275
     19 H           8.3328   10.5146   14.7878 H       1  UNL1        0.0275
     20 H           9.0544    9.4621   16.0106 H       1  UNL1        0.0275
@<TRIPOS>BOND
     1     9     8    1
     2    14    13    1
     3    11    12    1
     4    11     8    1
     5    11     1    1
     6    18    17    1
     7     3     4    1
     8     3     2    1
     9     3     5    1
    10     8     5    1
    11     8    10    1
    12     1     2    2
    13     1    13    1
    14     2    17    1
    15    19    17    1
    16     7     5    1
    17    17    20    1
    18    13    16    1
    19    13    15    1
    20     5     6    1
