@<TRIPOS>MOLECULE
1,3,11,13
 20 20 0 0 0
SMALL
GASTEIGER

@<TRIPOS>ATOM
      1 C           2.5909    3.4489    1.1663 C.3     1  UNL1       -0.0348
      2 H           1.8636    2.9956    1.8363 H       1  UNL1        0.0306
      3 C           3.9483    3.3409    1.5274 C.3     1  UNL1       -0.0348
      4 H           4.1723    2.8496    2.4723 H       1  UNL1        0.0306
      5 C           4.9992    4.3586    1.1336 C.3     1  UNL1       -0.0494
      6 H           5.9732    3.9684    1.4334 H       1  UNL1        0.0268
      7 H           4.8389    5.2904    1.6863 H       1  UNL1        0.0268
      8 C           5.0102    4.6297   -0.3827 C.3     1  UNL1       -0.0494
      9 H           4.4199    5.5165   -0.6148 H       1  UNL1        0.0268
     10 H           6.0340    4.8309   -0.7012 H       1  UNL1        0.0268
     11 C           4.4654    3.4487   -1.1663 C.3     1  UNL1       -0.0348
     12 H           5.1927    2.9952   -1.8363 H       1  UNL1        0.0306
     13 C           3.1080    3.3410   -1.5274 C.3     1  UNL1       -0.0348
     14 H           2.8838    2.8497   -2.4723 H       1  UNL1        0.0306
     15 C           2.0573    4.3590   -1.1336 C.3     1  UNL1       -0.0494
     16 H           1.0833    3.9689   -1.4333 H       1  UNL1        0.0268
     17 H           2.2178    5.2906   -1.6862 H       1  UNL1        0.0268
     18 C           2.0464    4.6300    0.3827 C.3     1  UNL1       -0.0494
     19 H           2.6369    5.5167    0.6148 H       1  UNL1        0.0268
     20 H           1.0225    4.8314    0.7013 H       1  UNL1        0.0268
@<TRIPOS>BOND
     1    14    13    1
     2    12    11    1
     3    17    15    1
     4    13    11    1
     5    13    15    1
     6    16    15    1
     7    11     8    1
     8    15    18    1
     9    10     8    1
    10     9     8    1
    11     8     5    1
    12    18    19    1
    13    18    20    1
    14    18     1    1
    15     5     6    1
    16     5     3    1
    17     5     7    1
    18     1     3    1
    19     1     2    1
    20     3     4    1
