@<TRIPOS>MOLECULE
5,14,23,40
 56 56 0 0 0
SMALL
GASTEIGER

@<TRIPOS>ATOM
      1 SI          3.1101    1.2131    2.9197 Si      1  UNL1        0.0000
      2 SI         -0.3066    3.1015    1.9197 Si      1  UNL1        0.0000
      3 SI          2.2487    1.7734    6.8339 Si      1  UNL1        0.0000
      4 SI         -1.1661    3.6332    5.8153 Si      1  UNL1        0.0000
      5 C          -0.0651    2.4091    4.8851 C.3     1  UNL1        0.0000
      6 C          -2.1944    2.8563    1.7107 C.3     1  UNL1        0.0000
      7 H          -2.6366    2.3676    2.5746 H       1  UNL1        0.0000
      8 H          -2.4053    2.2335    0.8460 H       1  UNL1        0.0000
      9 H          -2.7117    3.7992    1.5630 H       1  UNL1        0.0000
     10 C           0.1466    4.9493    2.1135 C.3     1  UNL1        0.0000
     11 H           1.2135    5.0854    2.2613 H       1  UNL1        0.0000
     12 H          -0.3591    5.4093    2.9558 H       1  UNL1        0.0000
     13 H          -0.1327    5.5004    1.2209 H       1  UNL1        0.0000
     14 C           1.5102    1.5131    3.8791 C.3     1  UNL1        0.0000
     15 C           0.4922    2.4632    0.3090 C.3     1  UNL1        0.0000
     16 H           1.5730    2.5391    0.3130 H       1  UNL1        0.0000
     17 H           0.1255    3.0467   -0.5310 H       1  UNL1        0.0000
     18 H           0.2343    1.4263    0.1184 H       1  UNL1        0.0000
     19 C           3.7825    2.9222    2.3844 C.3     1  UNL1        0.0000
     20 H           3.0692    3.4710    1.7788 H       1  UNL1        0.0000
     21 H           4.6901    2.8047    1.8005 H       1  UNL1        0.0000
     22 H           4.0243    3.5425    3.2418 H       1  UNL1        0.0000
     23 C           1.1430    1.6833    5.3054 C.3     1  UNL1        0.0000
     24 C          -0.0500    5.1361    6.2132 C.3     1  UNL1        0.0000
     25 H           0.7871    4.8703    6.8499 H       1  UNL1        0.0000
     26 H          -0.6208    5.9061    6.7233 H       1  UNL1        0.0000
     27 H           0.3585    5.5769    5.3090 H       1  UNL1        0.0000
     28 C          -2.6612    4.2723    4.8158 C.3     1  UNL1        0.0000
     29 H          -3.3515    3.4725    4.5667 H       1  UNL1        0.0000
     30 H          -2.3741    4.7613    3.8925 H       1  UNL1        0.0000
     31 H          -3.2090    4.9957    5.4131 H       1  UNL1        0.0000
     32 C           3.0286    0.0693    7.2058 C.3     1  UNL1        0.0000
     33 H           3.8641    0.1666    7.8928 H       1  UNL1        0.0000
     34 H           3.3920   -0.4291    6.3151 H       1  UNL1        0.0000
     35 H           2.3005   -0.5907    7.6701 H       1  UNL1        0.0000
     36 C           4.4846    0.3229    3.9002 C.3     1  UNL1        0.0000
     37 H           4.1830   -0.6821    4.1800 H       1  UNL1        0.0000
     38 H           4.7779    0.8473    4.8022 H       1  UNL1        0.0000
     39 H           5.3679    0.2297    3.2746 H       1  UNL1        0.0000
     40 C           0.3049    2.2410    3.4912 C.3     1  UNL1        0.0000
     41 C           1.3612    2.2665    8.4509 C.3     1  UNL1        0.0000
     42 H           0.8124    3.1970    8.3728 H       1  UNL1        0.0000
     43 H           2.0986    2.3863    9.2394 H       1  UNL1        0.0000
     44 H           0.6674    1.4982    8.7768 H       1  UNL1        0.0000
     45 C           2.7426    0.0888    1.4120 C.3     1  UNL1        0.0000
     46 H           1.6810   -0.1268    1.3219 H       1  UNL1        0.0000
     47 H           3.2560   -0.8633    1.5106 H       1  UNL1        0.0000
     48 H           3.0701    0.5360    0.4789 H       1  UNL1        0.0000
     49 C           3.5750    3.1073    6.4811 C.3     1  UNL1        0.0000
     50 H           3.1221    4.0778    6.3016 H       1  UNL1        0.0000
     51 H           4.1785    2.8663    5.6128 H       1  UNL1        0.0000
     52 H           4.2447    3.2110    7.3293 H       1  UNL1        0.0000
     53 C          -1.8954    2.8510    7.4004 C.3     1  UNL1        0.0000
     54 H          -1.3460    1.9701    7.7145 H       1  UNL1        0.0000
     55 H          -2.9261    2.5478    7.2394 H       1  UNL1        0.0000
     56 H          -1.8910    3.5547    8.2274 H       1  UNL1        0.0000
@<TRIPOS>BOND
     1    17    15    1
     2    18    15    1
     3    15    16    1
     4    15     2    1
     5    48    45    1
     6     8     6    1
     7    13    10    1
     8    46    45    1
     9    45    47    1
    10    45     1    1
    11     9     6    1
    12     6     2    1
    13     6     7    1
    14    20    19    1
    15    21    19    1
    16     2    10    1
    17     2    40    1
    18    10    11    1
    19    10    12    1
    20    19     1    1
    21    19    22    1
    22     1    14    1
    23     1    36    1
    24    39    36    1
    25    40    14    1
    26    40     5    1
    27    14    23    1
    28    30    28    1
    29    36    37    1
    30    36    38    1
    31    29    28    1
    32    28    31    1
    33    28     4    1
    34     5    23    1
    35     5     4    1
    36    23     3    1
    37    27    24    1
    38    51    49    1
    39     4    24    1
    40     4    53    1
    41    24    26    1
    42    24    25    1
    43    50    49    1
    44    34    32    1
    45    49     3    1
    46    49    52    1
    47     3    32    1
    48     3    41    1
    49    32    35    1
    50    32    33    1
    51    55    53    1
    52    53    54    1
    53    53    56    1
    54    42    41    1
    55    41    44    1
    56    41    43    1
