@<TRIPOS>MOLECULE
4,5,6,7
 19 18 0 0 0
SMALL
GASTEIGER

@<TRIPOS>ATOM
      1 SI          1.7370   19.1107    0.8772 Si      1  UNL1        0.0000
      2 C           2.0387   18.2985   -0.8159 C.3     1  UNL1        0.0000
      3 C           3.1330   20.3809    1.1876 C.3     1  UNL1        0.0000
      4 C           1.5321   18.2712    3.5978 C.3     1  UNL1        0.0000
      5 C           1.5990   17.8490    2.2816 C.3     1  UNL1        0.0000
      6 C          -0.2247   20.5279    2.3344 C.3     1  UNL1        0.0000
      7 C           0.0117   19.8305    1.1375 C.3     1  UNL1        0.0000
      8 H           1.6058   17.3078   -0.8873 H       1  UNL1        0.0000
      9 H           1.6236   18.9045   -1.6134 H       1  UNL1        0.0000
     10 H           3.1042   18.2084   -0.9948 H       1  UNL1        0.0000
     11 H           4.1031   19.8927    1.1962 H       1  UNL1        0.0000
     12 H           3.1487   21.1346    0.4064 H       1  UNL1        0.0000
     13 H           3.0152   20.8933    2.1372 H       1  UNL1        0.0000
     14 H           1.7133   16.7838    2.0842 H       1  UNL1        0.0000
     15 H          -0.7211   19.9209    0.3381 H       1  UNL1        0.0000
     16 H          -1.0733   21.2101    2.3732 H       1  UNL1        0.0000
     17 H           0.6328   20.9091    2.8871 H       1  UNL1        0.0000
     18 H           1.8856   19.2685    3.8510 H       1  UNL1        0.0000
     19 H           1.6991   17.5475    4.3940 H       1  UNL1        0.0000
@<TRIPOS>BOND
     1     9     2    1
     2    10     2    1
     3     8     2    1
     4     2     1    1
     5    15     7    1
     6    12     3    1
     7     1     7    1
     8     1     3    1
     9     1     5    1
    10     7     6    1
    11     3    11    1
    12     3    13    1
    13    14     5    1
    14     5     4    1
    15     6    16    1
    16     6    17    1
    17     4    18    1
    18     4    19    1
