@<TRIPOS>MOLECULE
1,2,5,8
 10 9 0 0 0
SMALL
GASTEIGER

@<TRIPOS>ATOM
      1 C          12.9621    9.9447    8.6111 C.3     1  UNL1       -0.0235
      2 C          11.9510   10.7305    7.9827 C.3     1  UNL1       -0.0463
      3 H          12.0791   10.9453    6.9211 H       1  UNL1        0.0271
      4 H          11.5769   11.5958    8.5338 H       1  UNL1        0.0271
      5 C          13.3983    8.8117    7.8623 C.3     1  UNL1       -0.0463
      6 H          14.1842    8.1980    8.3044 H       1  UNL1        0.0271
      7 H          13.5403    8.9484    6.7882 H       1  UNL1        0.0271
      8 C          12.7653    9.7086   10.0041 C.3     1  UNL1       -0.0463
      9 H          12.4483   10.5575   10.6110 H       1  UNL1        0.0271
     10 H          13.5090    9.0939   10.5157 H       1  UNL1        0.0271
@<TRIPOS>BOND
     1     7     5    1
     2     3     2    1
     3     5     6    1
     4     5     1    1
     5     2     4    1
     6     2     1    1
     7     1     8    1
     8     8    10    1
     9     8     9    1
