@<TRIPOS>MOLECULE
1,3,11,13
 20 20 0 0 0
SMALL
GASTEIGER

@<TRIPOS>ATOM
      1 C           5.7675    8.1432    1.3634 C.3     1  UNL1       -0.0348
      2 H           5.5492    9.1219    1.7842 H       1  UNL1        0.0306
      3 C           4.9252    7.1017    1.6898 C.3     1  UNL1       -0.0348
      4 H           4.1070    7.3128    2.3756 H       1  UNL1        0.0306
      5 C           4.7665    5.8573    0.8471 C.3     1  UNL1       -0.0494
      6 H           3.7343    5.5079    0.9142 H       1  UNL1        0.0268
      7 H           4.9567    6.1040   -0.1981 H       1  UNL1        0.0268
      8 C           5.7055    4.7311    1.3162 C.3     1  UNL1       -0.0494
      9 H           5.9462    4.0658    0.4791 H       1  UNL1        0.0268
     10 H           5.1883    4.1273    2.0665 H       1  UNL1        0.0268
     11 C           6.9890    5.2406    1.9353 C.3     1  UNL1       -0.0348
     12 H           7.4766    4.4828    2.5485 H       1  UNL1        0.0306
     13 C           7.8066    6.2335    1.3783 C.3     1  UNL1       -0.0348
     14 H           8.8654    6.1840    1.6224 H       1  UNL1        0.0306
     15 C           7.5271    6.8800    0.0346 C.3     1  UNL1       -0.0494
     16 H           8.4760    7.1249   -0.4471 H       1  UNL1        0.0268
     17 H           7.0186    6.1607   -0.6090 H       1  UNL1        0.0268
     18 C           6.6945    8.1681    0.1719 C.3     1  UNL1       -0.0494
     19 H           6.1117    8.3405   -0.7394 H       1  UNL1        0.0268
     20 H           7.3719    9.0175    0.2884 H       1  UNL1        0.0268
@<TRIPOS>BOND
     1    19    18    1
     2    17    15    1
     3    16    15    1
     4     7     5    1
     5    15    18    1
     6    15    13    1
     7    18    20    1
     8    18     1    1
     9     9     8    1
    10     5     6    1
    11     5     8    1
    12     5     3    1
    13     8    11    1
    14     8    10    1
    15     1     3    1
    16     1     2    1
    17    13    14    1
    18    13    11    1
    19     3     4    1
    20    11    12    1
