@<TRIPOS>MOLECULE
14,15,16,17
 93 92 0 0 0
SMALL
GASTEIGER

@<TRIPOS>ATOM
      1 CL         -1.1762  -11.7697    1.8536 Cl      1  UNL1        0.0000
      2 CL         -0.6145   -3.7106    3.9144 Cl      1  UNL1        0.0000
      3 SI          2.3798   -7.6654    6.4257 Si      1  UNL1        0.0000
      4 SI          3.0520   -5.1528   -4.6761 Si      1  UNL1        0.0000
      5 O           2.6011   -8.4627    5.0046 O.3     1  UNL1        0.0000
      6 O           1.2129   -9.7803    1.9244 O.3     1  UNL1        0.0000
      7 O           2.2530  -11.7205    2.3730 O.2     1  UNL1        0.0000
      8 O           0.8894   -7.0129    2.5666 O.3     1  UNL1        0.0000
      9 O           1.8490   -5.0241    2.9825 O.2     1  UNL1        0.0000
     10 O           2.9444   -6.6267   -3.9809 O.3     1  UNL1        0.0000
     11 C           1.6875   -9.1814    4.2469 C.3     1  UNL1        0.0000
     12 C           2.1117   -9.0743    2.7748 C.3     1  UNL1        0.0000
     13 C           2.1779   -7.6132    2.3205 C.3     1  UNL1        0.0000
     14 C           2.5194   -7.4783    0.8529 C.3     1  UNL1        0.0000
     15 C           3.2807   -6.3315    0.4521 C.2     1  UNL1        0.0000
     16 C           3.6862   -6.2621   -0.8871 C.2     1  UNL1        0.0000
     17 C           3.3240   -7.3343   -1.7566 C.3     1  UNL1        0.0000
     18 C           3.8648   -7.3235   -3.1726 C.3     1  UNL1        0.0000
     19 C           4.0283   -8.7402   -3.7319 C.3     1  UNL1        0.0000
     20 C           4.6719   -8.7305   -5.1150 C.3     1  UNL1        0.0000
     21 C           4.8234  -10.1401   -5.6812 C.3     1  UNL1        0.0000
     22 C           5.3398  -10.1552   -7.1203 C.3     1  UNL1        0.0000
     23 C           6.7698   -9.6438   -7.2509 C.3     1  UNL1        0.0000
     24 C           0.9187   -6.4427    6.3079 C.3     1  UNL1        0.0000
     25 C           2.0073   -8.9008    7.8318 C.3     1  UNL1        0.0000
     26 C           4.0671   -6.7738    6.6275 C.3     1  UNL1        0.0000
     27 C           5.1547   -7.7691    7.0382 C.3     1  UNL1        0.0000
     28 C           4.4952   -6.1072    5.3175 C.3     1  UNL1        0.0000
     29 C           3.9511   -5.7017    7.7115 C.3     1  UNL1        0.0000
     30 C           1.3915  -11.0981    1.8196 C.2     1  UNL1        0.0000
     31 C           0.3372  -11.7059    0.9160 C.3     1  UNL1        0.0000
     32 C           0.8794   -5.7194    2.8784 C.2     1  UNL1        0.0000
     33 C          -0.5589   -5.2613    3.0591 C.3     1  UNL1        0.0000
     34 C           2.9668   -3.7517   -3.3781 C.3     1  UNL1        0.0000
     35 C           4.6823   -4.9429   -5.6476 C.3     1  UNL1        0.0000
     36 C           1.5114   -5.1560   -5.8212 C.3     1  UNL1        0.0000
     37 C           0.2329   -5.2438   -4.9862 C.3     1  UNL1        0.0000
     38 C           1.4729   -3.8690   -6.6437 C.3     1  UNL1        0.0000
     39 C           1.5486   -6.3482   -6.7794 C.3     1  UNL1        0.0000
     40 H           1.6943  -10.2352    4.5481 H       1  UNL1        0.0000
     41 H           0.6716   -8.7885    4.3598 H       1  UNL1        0.0000
     42 H           3.1130   -9.5117    2.6700 H       1  UNL1        0.0000
     43 H           2.9176   -7.1037    2.9487 H       1  UNL1        0.0000
     44 H           1.6524   -7.7448    0.2495 H       1  UNL1        0.0000
     45 H           3.5709   -5.5725    1.1696 H       1  UNL1        0.0000
     46 H           4.3249   -5.4568   -1.2302 H       1  UNL1        0.0000
     47 H           2.2794   -7.6400   -1.7671 H       1  UNL1        0.0000
     48 H           4.8381   -6.8157   -3.1953 H       1  UNL1        0.0000
     49 H           4.6399   -9.3195   -3.0364 H       1  UNL1        0.0000
     50 H           3.0413   -9.2027   -3.7879 H       1  UNL1        0.0000
     51 H           5.6503   -8.2534   -5.0417 H       1  UNL1        0.0000
     52 H           4.0532   -8.1332   -5.7863 H       1  UNL1        0.0000
     53 H           5.5030  -10.7136   -5.0466 H       1  UNL1        0.0000
     54 H           3.8501  -10.6362   -5.6547 H       1  UNL1        0.0000
     55 H           4.6792   -9.5498   -7.7451 H       1  UNL1        0.0000
     56 H           5.2978  -11.1812   -7.4935 H       1  UNL1        0.0000
     57 H           7.1193   -9.7586   -8.2746 H       1  UNL1        0.0000
     58 H           6.8346   -8.5913   -6.9882 H       1  UNL1        0.0000
     59 H           7.4348  -10.2041   -6.5973 H       1  UNL1        0.0000
     60 H           0.6772   -6.0087    7.2722 H       1  UNL1        0.0000
     61 H           1.1349   -5.6231    5.6294 H       1  UNL1        0.0000
     62 H           0.0228   -6.9428    5.9483 H       1  UNL1        0.0000
     63 H           2.0480   -8.4311    8.8088 H       1  UNL1        0.0000
     64 H           1.0162   -9.3329    7.7215 H       1  UNL1        0.0000
     65 H           2.7207   -9.7196    7.8299 H       1  UNL1        0.0000
     66 H           4.9276   -8.2133    8.0042 H       1  UNL1        0.0000
     67 H           5.2401   -8.5648    6.3027 H       1  UNL1        0.0000
     68 H           6.1186   -7.2664    7.1131 H       1  UNL1        0.0000
     69 H           3.7340   -5.4203    4.9541 H       1  UNL1        0.0000
     70 H           5.4176   -5.5458    5.4645 H       1  UNL1        0.0000
     71 H           4.6747   -6.8623    4.5558 H       1  UNL1        0.0000
     72 H           3.6334   -6.1387    8.6552 H       1  UNL1        0.0000
     73 H           4.9131   -5.2156    7.8696 H       1  UNL1        0.0000
     74 H           3.2291   -4.9411    7.4272 H       1  UNL1        0.0000
     75 H           0.1589  -11.0840    0.0410 H       1  UNL1        0.0000
     76 H           0.6118  -12.7229    0.6418 H       1  UNL1        0.0000
     77 H          -1.0178   -5.1249    2.0783 H       1  UNL1        0.0000
     78 H          -1.1226   -6.0002    3.6271 H       1  UNL1        0.0000
     79 H           2.6629   -2.8100   -3.8230 H       1  UNL1        0.0000
     80 H           2.2569   -3.9869   -2.5901 H       1  UNL1        0.0000
     81 H           3.9327   -3.5829   -2.9097 H       1  UNL1        0.0000
     82 H           4.7863   -3.9414   -6.0512 H       1  UNL1        0.0000
     83 H           5.5390   -5.1208   -5.0028 H       1  UNL1        0.0000
     84 H           4.7534   -5.6408   -6.4764 H       1  UNL1        0.0000
     85 H           0.2384   -6.1461   -4.3804 H       1  UNL1        0.0000
     86 H           0.1441   -4.3851   -4.3249 H       1  UNL1        0.0000
     87 H          -0.6443   -5.2681   -5.6328 H       1  UNL1        0.0000
     88 H           2.3590   -3.7812   -7.2673 H       1  UNL1        0.0000
     89 H           0.5979   -3.8581   -7.2931 H       1  UNL1        0.0000
     90 H           1.4237   -2.9965   -5.9969 H       1  UNL1        0.0000
     91 H           2.4225   -6.2994   -7.4253 H       1  UNL1        0.0000
     92 H           1.5809   -7.2809   -6.2222 H       1  UNL1        0.0000
     93 H           0.6608   -6.3562   -7.4117 H       1  UNL1        0.0000
@<TRIPOS>BOND
     1    57    23    1
     2    55    22    1
     3    56    22    1
     4    91    39    1
     5    93    39    1
     6    89    38    1
     7    88    38    1
     8    23    22    1
     9    23    58    1
    10    23    59    1
    11    22    21    1
    12    39    92    1
    13    39    36    1
    14    38    90    1
    15    38    36    1
    16    84    35    1
    17    82    35    1
    18    36    37    1
    19    36     4    1
    20    52    20    1
    21    21    54    1
    22    21    20    1
    23    21    53    1
    24    35    83    1
    25    35     4    1
    26    87    37    1
    27    20    51    1
    28    20    19    1
    29    37    85    1
    30    37    86    1
    31     4    10    1
    32     4    34    1
    33    10    18    1
    34    79    34    1
    35    50    19    1
    36    19    18    1
    37    19    49    1
    38    34    81    1
    39    34    80    1
    40    48    18    1
    41    18    17    1
    42    47    17    1
    43    17    16    1
    44    46    16    1
    45    16    15    2
    46    75    31    1
    47    44    14    1
    48    15    14    1
    49    15    45    1
    50    76    31    1
    51    14    13    1
    52    31    30    1
    53    31     1    1
    54    30     6    1
    55    30     7    2
    56     6    12    1
    57    77    33    1
    58    13     8    1
    59    13    12    1
    60    13    43    1
    61     8    32    1
    62    42    12    1
    63    12    11    1
    64    32     9    2
    65    32    33    1
    66    33    78    1
    67    33     2    1
    68    11    41    1
    69    11    40    1
    70    11     5    1
    71    71    28    1
    72    69    28    1
    73     5     3    1
    74    28    70    1
    75    28    26    1
    76    61    24    1
    77    62    24    1
    78    67    27    1
    79    24     3    1
    80    24    60    1
    81     3    26    1
    82     3    25    1
    83    26    27    1
    84    26    29    1
    85    27    68    1
    86    27    66    1
    87    74    29    1
    88    29    73    1
    89    29    72    1
    90    64    25    1
    91    65    25    1
    92    25    63    1
