@<TRIPOS>MOLECULE
3,4,5,6
 32 31 0 0 0
SMALL
GASTEIGER

@<TRIPOS>ATOM
      1 SI         -1.2962   10.0045    0.8240 Si      1  UNL1        0.0000
      2 SI          4.9941   10.6286    3.3430 Si      1  UNL1        0.0000
      3 C           3.4636    9.6712    2.8316 C.3     1  UNL1        0.0000
      4 C           2.5600   10.2183    1.8886 C.3     1  UNL1        0.0000
      5 C           1.4186   10.5793    1.5475 C.3     1  UNL1        0.0000
      6 C           0.0546   10.8316    1.8301 C.3     1  UNL1        0.0000
      7 C           4.7577   12.4998    2.9934 C.3     1  UNL1        0.0000
      8 H           5.3630   12.8080    2.1468 H       1  UNL1        0.0000
      9 H           5.0450   13.1214    3.8360 H       1  UNL1        0.0000
     10 H           3.7212   12.7209    2.7490 H       1  UNL1        0.0000
     11 C           5.2421   10.2164    5.2094 C.3     1  UNL1        0.0000
     12 H           4.3381    9.7899    5.6469 H       1  UNL1        0.0000
     13 H           5.5153   11.0914    5.7910 H       1  UNL1        0.0000
     14 H           6.0411    9.4925    5.3359 H       1  UNL1        0.0000
     15 C           6.6113   10.1045    2.4537 C.3     1  UNL1        0.0000
     16 H           6.8127    9.0471    2.5968 H       1  UNL1        0.0000
     17 H           7.4671   10.6538    2.8345 H       1  UNL1        0.0000
     18 H           6.5546   10.2842    1.3842 H       1  UNL1        0.0000
     19 C          -0.6202    8.4325   -0.0429 C.3     1  UNL1        0.0000
     20 H          -0.5140    8.6023   -1.1097 H       1  UNL1        0.0000
     21 H          -1.2725    7.5737    0.0816 H       1  UNL1        0.0000
     22 H           0.3619    8.1688    0.3433 H       1  UNL1        0.0000
     23 C          -2.0629   11.1039   -0.5486 C.3     1  UNL1        0.0000
     24 H          -2.4632   12.0246   -0.1348 H       1  UNL1        0.0000
     25 H          -2.8763   10.5944   -1.0564 H       1  UNL1        0.0000
     26 H          -1.3265   11.3765   -1.2987 H       1  UNL1        0.0000
     27 C          -2.7075    9.6458    2.0872 C.3     1  UNL1        0.0000
     28 H          -2.3488    9.7215    3.1151 H       1  UNL1        0.0000
     29 H          -3.1393    8.6585    1.9555 H       1  UNL1        0.0000
     30 H          -3.5159   10.3605    1.9684 H       1  UNL1        0.0000
     31 H           3.7202    8.6273    2.6005 H       1  UNL1        0.0000
     32 H          -0.1517   11.9057    1.9433 H       1  UNL1        0.0000
@<TRIPOS>BOND
     1    26    23    1
     2    20    19    1
     3    25    23    1
     4    23    24    1
     5    23     1    1
     6    19    21    1
     7    19    22    1
     8    19     1    1
     9     1     6    1
    10     1    27    1
    11    18    15    1
    12     5     6    1
    13     5     4    1
    14     6    32    1
    15     4     3    1
    16    29    27    1
    17    30    27    1
    18    27    28    1
    19     8     7    1
    20    15    16    1
    21    15    17    1
    22    15     2    1
    23    31     3    1
    24    10     7    1
    25     3     2    1
    26     7     2    1
    27     7     9    1
    28     2    11    1
    29    11    14    1
    30    11    12    1
    31    11    13    1
