@<TRIPOS>MOLECULE
4,7,9,12
 29 28 0 0 0
SMALL
GASTEIGER

@<TRIPOS>ATOM
      1 O           9.2823    7.9297    1.4527 O.3     1  UNL1        0.0000
      2 SI          9.9845    9.3209    0.9064 Si      1  UNL1        0.0000
      3 SI          8.9980    7.3340    2.9436 Si      1  UNL1        0.0000
      4 C           8.1408   11.4646    1.3244 C.3     1  UNL1        0.0000
      5 H           7.6671   11.0630    0.4287 H       1  UNL1        0.0000
      6 H           8.1144   12.5489    1.3261 H       1  UNL1        0.0000
      7 C           9.2987   10.7958    1.8102 C.3     1  UNL1        0.0000
      8 H          10.0296   11.4219    2.3101 H       1  UNL1        0.0000
      9 C           8.7499    9.7591    4.4512 C.3     1  UNL1        0.0000
     10 H           9.7988    9.8948    4.2299 H       1  UNL1        0.0000
     11 H           8.4279   10.1895    5.3913 H       1  UNL1        0.0000
     12 C           8.1264    8.5971    4.0069 C.3     1  UNL1        0.0000
     13 H           7.3295    8.2041    4.6265 H       1  UNL1        0.0000
     14 C          11.8677    9.1800    1.1497 C.3     1  UNL1        0.0000
     15 H          12.1370    9.3191    2.1913 H       1  UNL1        0.0000
     16 H          12.3992    9.9267    0.5698 H       1  UNL1        0.0000
     17 H          12.2277    8.2027    0.8461 H       1  UNL1        0.0000
     18 C           9.5787    9.2688   -0.9577 C.3     1  UNL1        0.0000
     19 H          10.0049    8.3921   -1.4344 H       1  UNL1        0.0000
     20 H           9.9764   10.1458   -1.4565 H       1  UNL1        0.0000
     21 H           8.5080    9.2478   -1.1311 H       1  UNL1        0.0000
     22 C          10.6564    6.8009    3.7233 C.3     1  UNL1        0.0000
     23 H          11.2132    6.1546    3.0517 H       1  UNL1        0.0000
     24 H          10.5068    6.2641    4.6546 H       1  UNL1        0.0000
     25 H          11.2775    7.6639    3.9371 H       1  UNL1        0.0000
     26 C           7.9121    5.7829    2.6976 C.3     1  UNL1        0.0000
     27 H           7.9509    5.4225    1.6755 H       1  UNL1        0.0000
     28 H           6.8748    5.9738    2.9516 H       1  UNL1        0.0000
     29 H           8.2553    4.9806    3.3412 H       1  UNL1        0.0000
@<TRIPOS>BOND
     1    20    18    1
     2    19    18    1
     3    21    18    1
     4    18     2    1
     5     5     4    1
     6    16    14    1
     7    17    14    1
     8     2    14    1
     9     2     1    1
    10     2     7    1
    11    14    15    1
    12     4     6    1
    13     4     7    1
    14     1     3    1
    15    27    26    1
    16     7     8    1
    17    26     3    1
    18    26    28    1
    19    26    29    1
    20     3    22    1
    21     3    12    1
    22    23    22    1
    23    22    25    1
    24    22    24    1
    25    12     9    1
    26    12    13    1
    27    10     9    1
    28     9    11    1
