@<TRIPOS>MOLECULE
21,23,24
 39 42 0 0 0
SMALL
GASTEIGER

@<TRIPOS>ATOM
      1 C           5.3034    9.1899    4.5479 C.ar    1  UNL1       -0.0571
      2 H           4.7983    8.8477    3.6541 H       1  UNL1        0.0621
      3 C           6.6632    8.9964    4.6779 C.ar    1  UNL1       -0.0614
      4 H           7.2086    8.5136    3.8775 H       1  UNL1        0.0618
      5 C           7.3518    9.3862    5.8282 C.ar    1  UNL1       -0.0612
      6 H           8.4159    9.2135    5.8954 H       1  UNL1        0.0618
      7 C           6.6766    9.9740    6.8782 C.ar    1  UNL1       -0.0537
      8 H           7.2034   10.2567    7.7789 H       1  UNL1        0.0624
      9 C           5.3052   10.1780    6.7780 C.ar    1  UNL1       -0.0135
     10 C           4.3584   10.7101    7.7098 C.ar    1  UNL1       -0.0135
     11 C           4.5580   11.2391    8.9790 C.ar    1  UNL1       -0.0537
     12 H           5.5557   11.2937    9.3913 H       1  UNL1        0.0624
     13 C           3.4732   11.6876    9.7005 C.ar    1  UNL1       -0.0612
     14 H           3.6077   12.1010   10.6893 H       1  UNL1        0.0618
     15 C           2.1930   11.6047    9.1537 C.ar    1  UNL1       -0.0614
     16 H           1.3505   11.9545    9.7340 H       1  UNL1        0.0618
     17 C           1.9723   11.0925    7.8936 C.ar    1  UNL1       -0.0571
     18 H           0.9608   11.0656    7.5247 H       1  UNL1        0.0621
     19 C           3.0524   10.6306    7.1245 C.ar    1  UNL1       -0.0271
     20 C           3.1657   10.0973    5.7802 C.3     1  UNL1        0.0450
     21 C           4.5855    9.7957    5.5998 C.ar    1  UNL1       -0.0271
     22 C           2.0916    9.3919    4.9268 C.3     1  UNL1        0.0018
     23 C           2.2006    9.8923    3.4915 C.2     1  UNL1       -0.0550
     24 C           1.8927   11.2710    3.1137 C.3     1  UNL1        0.0093
     25 H           1.0491   11.8157    3.5487 H       1  UNL1        0.0397
     26 C           2.1087   11.3368    1.6948 C.2     1  UNL1       -0.0760
     27 H           1.8709   12.1913    1.0770 H       1  UNL1        0.0578
     28 C           2.5680   10.1172    1.2582 C.2     1  UNL1       -0.0651
     29 H           2.8268    9.8572    0.2447 H       1  UNL1        0.0615
     30 C           2.6285    9.2334    2.3591 C.2     1  UNL1       -0.0617
     31 H           2.9413    8.2048    2.2947 H       1  UNL1        0.0617
     32 C           2.3006    7.8707    5.0201 C.3     1  UNL1       -0.0549
     33 H           1.5680    7.3567    4.4014 H       1  UNL1        0.0238
     34 H           2.1730    7.5503    6.0524 H       1  UNL1        0.0238
     35 H           3.2949    7.5771    4.7007 H       1  UNL1        0.0238
     36 C           0.6567    9.6657    5.4054 C.3     1  UNL1       -0.0549
     37 H           0.4422   10.7311    5.4543 H       1  UNL1        0.0238
     38 H           0.4869    9.2207    6.3827 H       1  UNL1        0.0238
     39 H          -0.0379    9.2129    4.6992 H       1  UNL1        0.0238
@<TRIPOS>BOND
     1    29    28    1
     2    27    26    1
     3    28    26    2
     4    28    30    1
     5    26    24    1
     6    31    30    1
     7    30    23    2
     8    24    23    1
     9    24    25    1
    10    23    22    1
    11     2     1    1
    12     4     3    1
    13    33    32    1
    14     1     3   ar
    15     1    21   ar
    16     3     5   ar
    17    39    36    1
    18    35    32    1
    19    22    32    1
    20    22    36    1
    21    22    20    1
    22    32    34    1
    23    36    37    1
    24    36    38    1
    25    21    20    1
    26    21     9   ar
    27    20    19    1
    28     5     6    1
    29     5     7   ar
    30     9     7   ar
    31     9    10    1
    32     7     8    1
    33    19    10   ar
    34    19    17   ar
    35    18    17    1
    36    10    11   ar
    37    17    15   ar
    38    11    12    1
    39    11    13   ar
    40    15    13   ar
    41    15    16    1
    42    13    14    1
