@<TRIPOS>MOLECULE
23,24,26,27
 54 57 0 0 0
SMALL
GASTEIGER

@<TRIPOS>ATOM
      1 SI          3.8645    2.7299   10.5362 Si      1  UNL1        0.0000
      2 SI          3.9714    5.9962   15.3402 Si      1  UNL1        0.0000
      3 O           5.2928    4.3939   12.8845 O.2     1  UNL1        0.0000
      4 C           0.9087    7.1040   12.6905 C.ar    1  UNL1        0.0000
      5 C           1.0090    8.3646   13.2271 C.ar    1  UNL1        0.0000
      6 H           0.9742    8.4833   14.3007 H       1  UNL1        0.0000
      7 C           1.1492    9.5075   12.4345 C.ar    1  UNL1        0.0000
      8 H           1.2195   10.4780   12.9020 H       1  UNL1        0.0000
      9 C           1.2019    9.3725   11.0797 C.ar    1  UNL1        0.0000
     10 H           1.3152   10.2362   10.4411 H       1  UNL1        0.0000
     11 C           1.1110    8.1007   10.4772 C.ar    1  UNL1        0.0000
     12 C           1.1730    8.0148    9.0710 C.ar    1  UNL1        0.0000
     13 H           1.2890    8.9278    8.5055 H       1  UNL1        0.0000
     14 C           1.0904    6.8091    8.4419 C.ar    1  UNL1        0.0000
     15 H           1.1401    6.7363    7.3659 H       1  UNL1        0.0000
     16 C           0.9446    5.6498    9.2092 C.ar    1  UNL1        0.0000
     17 H           0.8827    4.6989    8.6995 H       1  UNL1        0.0000
     18 C           0.8710    5.6789   10.5806 C.ar    1  UNL1        0.0000
     19 C           0.9585    6.9244   11.2744 C.ar    1  UNL1        0.0000
     20 C           0.7303    4.3420   11.2753 C.3     1  UNL1        0.0000
     21 H          -0.2232    4.2946   11.8080 H       1  UNL1        0.0000
     22 H           0.7418    3.5439   10.5356 H       1  UNL1        0.0000
     23 C           1.8704    4.2049   12.2308 C.3     1  UNL1        0.0000
     24 C           3.1487    3.6071   12.0492 C.3     1  UNL1        0.0000
     25 C           4.0801    4.3290   12.9569 C.2     1  UNL1        0.0000
     26 C           3.1931    4.9245   13.9922 C.3     1  UNL1        0.0000
     27 C           1.8974    5.0039   13.4100 C.3     1  UNL1        0.0000
     28 C           0.7825    5.9624   13.6755 C.3     1  UNL1        0.0000
     29 H           0.8346    6.3503   14.6910 H       1  UNL1        0.0000
     30 H          -0.1844    5.4670   13.5531 H       1  UNL1        0.0000
     31 C           5.2517    1.5829   11.1496 C.3     1  UNL1        0.0000
     32 H           4.8550    0.7658   11.7467 H       1  UNL1        0.0000
     33 H           5.9496    2.1374   11.7681 H       1  UNL1        0.0000
     34 H           5.8082    1.1497   10.3242 H       1  UNL1        0.0000
     35 C           2.5429    1.6693    9.6525 C.3     1  UNL1        0.0000
     36 H           1.9285    2.2553    8.9769 H       1  UNL1        0.0000
     37 H           1.8854    1.1673   10.3559 H       1  UNL1        0.0000
     38 H           3.0254    0.9019    9.0567 H       1  UNL1        0.0000
     39 C           4.5037    4.1112    9.3858 C.3     1  UNL1        0.0000
     40 H           3.7145    4.8059    9.1090 H       1  UNL1        0.0000
     41 H           4.9237    3.7012    8.4723 H       1  UNL1        0.0000
     42 H           5.2820    4.6795    9.8853 H       1  UNL1        0.0000
     43 C           5.3875    4.9959   16.1207 C.3     1  UNL1        0.0000
     44 H           6.0524    4.6236   15.3484 H       1  UNL1        0.0000
     45 H           5.0103    4.1405   16.6752 H       1  UNL1        0.0000
     46 H           5.9753    5.6005   16.8046 H       1  UNL1        0.0000
     47 C           2.7038    6.4275   16.7040 C.3     1  UNL1        0.0000
     48 H           2.0410    5.5956   16.9229 H       1  UNL1        0.0000
     49 H           2.0925    7.2847   16.4415 H       1  UNL1        0.0000
     50 H           3.2227    6.6780   17.6232 H       1  UNL1        0.0000
     51 C           4.5842    7.5745   14.4603 C.3     1  UNL1        0.0000
     52 H           3.7774    8.0925   13.9477 H       1  UNL1        0.0000
     53 H           5.3343    7.3186   13.7185 H       1  UNL1        0.0000
     54 H           5.0336    8.2691   15.1635 H       1  UNL1        0.0000
@<TRIPOS>BOND
     1    15    14    1
     2    14    12   ar
     3    14    16   ar
     4    41    39    1
     5    13    12    1
     6    17    16    1
     7    36    35    1
     8    38    35    1
     9    12    11   ar
    10    40    39    1
    11    16    18   ar
    12    39    42    1
    13    39     1    1
    14    35    37    1
    15    35     1    1
    16    34    31    1
    17    10     9    1
    18    11     9   ar
    19    11    19   ar
    20    22    20    1
    21     1    31    1
    22     1    24    1
    23    18    19   ar
    24    18    20    1
    25     9     7   ar
    26    31    32    1
    27    31    33    1
    28    19     4   ar
    29    20    21    1
    30    20    23    1
    31    24    23    1
    32    24    25    1
    33    23    27    1
    34     7     8    1
    35     7     5   ar
    36     4     5   ar
    37     4    28    1
    38     3    25    2
    39    25    26    1
    40     5     6    1
    41    27    28    1
    42    27    26    1
    43    30    28    1
    44    28    29    1
    45    53    51    1
    46    52    51    1
    47    26     2    1
    48    51    54    1
    49    51     2    1
    50     2    43    1
    51     2    47    1
    52    44    43    1
    53    43    45    1
    54    43    46    1
    55    49    47    1
    56    47    48    1
    57    47    50    1
