@<TRIPOS>MOLECULE
1,2,3,4
 10 9 0 0 0
SMALL
GASTEIGER

@<TRIPOS>ATOM
      1 C           3.4190    2.0957    9.8695 C.3     1  UNL1       -0.0313
      2 C           1.9787    2.1036   10.2132 C.2     1  UNL1       -0.0876
      3 C           1.2370    0.9694   10.2106 C.2     1  UNL1       -0.0876
      4 C           1.8223   -0.3481    9.8628 C.3     1  UNL1       -0.0313
      5 H           3.5754    1.9145    8.7968 H       1  UNL1        0.0310
      6 H           3.9109    3.0355   10.1481 H       1  UNL1        0.0310
      7 H           1.5211    3.0344   10.5504 H       1  UNL1        0.0569
      8 H           0.1990    1.0124   10.5435 H       1  UNL1        0.0569
      9 H           2.0540   -0.4119    8.7880 H       1  UNL1        0.0310
     10 H           1.1510   -1.1741   10.1298 H       1  UNL1        0.0310
@<TRIPOS>BOND
     1     9     4    1
     2     5     1    1
     3     4    10    1
     4     4     3    1
     5     1     6    1
     6     1     2    1
     7     3     2    2
     8     3     8    1
     9     2     7    1
