@<TRIPOS>MOLECULE
1,2,3,4
 23 23 0 0 0
SMALL
GASTEIGER

@<TRIPOS>ATOM
      1 C           1.7848    5.3843   14.7180 C.3     1  UNL1        0.0000
      2 C           2.0228    4.7710   15.9746 C.3     1  UNL1        0.0000
      3 C           2.8038    3.5791   15.8388 C.3     1  UNL1        0.0000
      4 C           3.1949    3.3598   14.5005 C.3     1  UNL1        0.0000
      5 SI          1.6842    3.9427   13.4888 Si      1  UNL1        0.0000
      6 C           1.3659    5.1640   17.2583 C.3     1  UNL1        0.0000
      7 C           2.9881    2.5931   16.9439 C.3     1  UNL1        0.0000
      8 C           0.2179    2.8051   13.9363 C.3     1  UNL1        0.0000
      9 C           1.5770    4.1834   11.6097 C.3     1  UNL1        0.0000
     10 H           1.1802    6.2808   14.6910 H       1  UNL1        0.0000
     11 H           2.0275    5.0489   18.1143 H       1  UNL1        0.0000
     12 H           0.5082    4.5078   17.4169 H       1  UNL1        0.0000
     13 H           1.0003    6.1871   17.2228 H       1  UNL1        0.0000
     14 H           0.1292    2.6545   15.0071 H       1  UNL1        0.0000
     15 H           0.3287    1.8303   13.4718 H       1  UNL1        0.0000
     16 H          -0.7172    3.2259   13.5815 H       1  UNL1        0.0000
     17 H           3.8189    2.5005   14.2852 H       1  UNL1        0.0000
     18 H           3.0988    3.0650   17.9160 H       1  UNL1        0.0000
     19 H           3.8304    1.9316   16.7561 H       1  UNL1        0.0000
     20 H           2.0873    1.9765   16.9810 H       1  UNL1        0.0000
     21 H           2.3430    4.8043   11.1685 H       1  UNL1        0.0000
     22 H           0.6142    4.6242   11.3748 H       1  UNL1        0.0000
     23 H           1.6086    3.2140   11.1244 H       1  UNL1        0.0000
@<TRIPOS>BOND
     1    23     9    1
     2    21     9    1
     3    22     9    1
     4     9     5    1
     5    15     8    1
     6     5     8    1
     7     5     4    1
     8     5     1    1
     9    16     8    1
    10     8    14    1
    11    17     4    1
    12     4     3    1
    13    10     1    1
    14     1     2    1
    15     3     2    1
    16     3     7    1
    17     2     6    1
    18    19     7    1
    19     7    20    1
    20     7    18    1
    21    13     6    1
    22     6    12    1
    23     6    11    1
