@<TRIPOS>MOLECULE
4,5,7,8
 56 57 0 0 0
SMALL
GASTEIGER

@<TRIPOS>ATOM
      1 SI         12.9969   -2.4848    7.1131 Si      1  UNL1        0.0000
      2 SI         10.7280   -0.0345    2.9782 Si      1  UNL1        0.0000
      3 C          13.4435   -0.7399    6.5880 C.2     1  UNL1        0.0000
      4 C          13.2370   -0.1832    5.4027 C.1     1  UNL1        0.0000
      5 C          13.2148    0.3129    4.2239 C.2     1  UNL1        0.0000
      6 C          12.2029    1.1159    3.4537 C.3     1  UNL1        0.0000
      7 C          12.8184    1.7013    2.2008 C.2     1  UNL1        0.0000
      8 C          14.0508    1.3094    1.8084 C.2     1  UNL1        0.0000
      9 C          11.9793    2.6303    1.4171 C.ar    1  UNL1        0.0000
     10 C          11.8316    2.4461    0.0428 C.ar    1  UNL1        0.0000
     11 C          11.0692    3.3176   -0.7102 C.ar    1  UNL1        0.0000
     12 C          10.4393    4.3931   -0.1055 C.ar    1  UNL1        0.0000
     13 C          10.5799    4.5889    1.2577 C.ar    1  UNL1        0.0000
     14 C          11.3401    3.7151    2.0128 C.ar    1  UNL1        0.0000
     15 C          14.7559    1.9471    0.6916 C.ar    1  UNL1        0.0000
     16 C          15.4424    1.1850   -0.2642 C.ar    1  UNL1        0.0000
     17 C          16.1692    1.7904   -1.2720 C.ar    1  UNL1        0.0000
     18 C          16.2470    3.1716   -1.3490 C.ar    1  UNL1        0.0000
     19 C          15.5790    3.9429   -0.4108 C.ar    1  UNL1        0.0000
     20 C          14.8430    3.3438    0.5911 C.ar    1  UNL1        0.0000
     21 C          12.5751   -3.6436    5.6547 C.3     1  UNL1        0.0000
     22 C          11.4857   -2.4373    8.2869 C.3     1  UNL1        0.0000
     23 C          14.4663   -3.2304    8.0889 C.3     1  UNL1        0.0000
     24 C          11.4397   -1.2966    1.7301 C.3     1  UNL1        0.0000
     25 C           9.2939    0.9260    2.1602 C.3     1  UNL1        0.0000
     26 C          10.0484   -0.8438    4.5675 C.3     1  UNL1        0.0000
     27 H          11.8181    1.9277    4.0839 H       1  UNL1        0.0000
     28 H          13.8667   -0.1101    7.3663 H       1  UNL1        0.0000
     29 H          15.3763    0.1030   -0.2303 H       1  UNL1        0.0000
     30 H          16.6808    1.1813   -2.0043 H       1  UNL1        0.0000
     31 H          16.8206    3.6421   -2.1336 H       1  UNL1        0.0000
     32 H          15.6314    5.0211   -0.4643 H       1  UNL1        0.0000
     33 H          14.3255    3.9553    1.3172 H       1  UNL1        0.0000
     34 H          12.3160    1.6035   -0.4291 H       1  UNL1        0.0000
     35 H          10.9628    3.1579   -1.7737 H       1  UNL1        0.0000
     36 H           9.8434    5.0755   -0.6937 H       1  UNL1        0.0000
     37 H          10.0956    5.4293    1.7346 H       1  UNL1        0.0000
     38 H          11.4556    3.8906    3.0731 H       1  UNL1        0.0000
     39 H           9.5512    1.2804    1.1679 H       1  UNL1        0.0000
     40 H           8.9991    1.7903    2.7468 H       1  UNL1        0.0000
     41 H           8.4240    0.2834    2.0661 H       1  UNL1        0.0000
     42 H           9.5383   -1.7759    4.3469 H       1  UNL1        0.0000
     43 H           9.3313   -0.1913    5.0563 H       1  UNL1        0.0000
     44 H          10.8409   -1.0529    5.2787 H       1  UNL1        0.0000
     45 H          11.4840   -2.3009    2.1393 H       1  UNL1        0.0000
     46 H          12.4492   -1.0013    1.4415 H       1  UNL1        0.0000
     47 H          10.8346   -1.3438    0.8300 H       1  UNL1        0.0000
     48 H          11.9879   -3.1302    4.9003 H       1  UNL1        0.0000
     49 H          11.9934   -4.4946    5.9973 H       1  UNL1        0.0000
     50 H          13.4679   -4.0332    5.1764 H       1  UNL1        0.0000
     51 H          11.6610   -1.7702    9.1256 H       1  UNL1        0.0000
     52 H          11.2687   -3.4209    8.6930 H       1  UNL1        0.0000
     53 H          10.5938   -2.0891    7.7747 H       1  UNL1        0.0000
     54 H          15.3627   -3.3154    7.4802 H       1  UNL1        0.0000
     55 H          14.2290   -4.2244    8.4576 H       1  UNL1        0.0000
     56 H          14.7149   -2.6161    8.9495 H       1  UNL1        0.0000
@<TRIPOS>BOND
     1    31    18    1
     2    30    17    1
     3    35    11    1
     4    18    17   ar
     5    18    19   ar
     6    17    16   ar
     7    11    12   ar
     8    11    10   ar
     9    36    12    1
    10    32    19    1
    11    34    10    1
    12    19    20   ar
    13    16    29    1
    14    16    15   ar
    15    12    13   ar
    16    10     9   ar
    17    20    15   ar
    18    20    33    1
    19    15     8    1
    20    47    24    1
    21    39    25    1
    22    13    37    1
    23    13    14   ar
    24     9    14   ar
    25     9     7    1
    26    46    24    1
    27    24    45    1
    28    24     2    1
    29     8     7    2
    30    14    38    1
    31    41    25    1
    32    25    40    1
    33    25     2    1
    34     7     6    1
    35     2     6    1
    36     2    26    1
    37     6    27    1
    38     6     5    1
    39     5     4    2
    40    42    26    1
    41    26    43    1
    42    26    44    1
    43    48    21    1
    44    50    21    1
    45     4     3    2
    46    21    49    1
    47    21     1    1
    48     3     1    1
    49     3    28    1
    50     1    23    1
    51     1    22    1
    52    54    23    1
    53    53    22    1
    54    23    55    1
    55    23    56    1
    56    22    52    1
    57    22    51    1
