@<TRIPOS>MOLECULE
4,5,6,7
 51 51 0 0 0
SMALL
GASTEIGER

@<TRIPOS>ATOM
      1 SI         12.7113   -1.1636    2.2933 Si      1  UNL1        0.0000
      2 SI          9.3537    4.7487    3.4861 Si      1  UNL1        0.0000
      3 SI          8.5398   -1.1190    3.6216 Si      1  UNL1        0.0000
      4 C          11.7399    0.4348    2.2842 C.3     1  UNL1        0.0000
      5 C          10.6930    0.7177    3.2392 C.2     1  UNL1        0.0000
      6 C          10.0858    1.9364    3.5482 C.2     1  UNL1        0.0000
      7 C          10.2932    3.2371    2.9023 C.3     1  UNL1        0.0000
      8 C           9.9367   -0.0181    4.3365 C.3     1  UNL1        0.0000
      9 C           9.4383    1.3720    4.7278 C.2     1  UNL1        0.0000
     10 C           8.7786    1.8063    5.7932 C.2     1  UNL1        0.0000
     11 C          14.5348   -0.7344    1.8379 C.3     1  UNL1        0.0000
     12 C          12.7892   -2.0548    3.9858 C.3     1  UNL1        0.0000
     13 C          12.1242   -2.4387    0.9830 C.3     1  UNL1        0.0000
     14 C          10.0202    5.4775    5.1320 C.3     1  UNL1        0.0000
     15 C           9.5597    6.1576    2.1975 C.3     1  UNL1        0.0000
     16 C           7.4568    4.4852    3.6536 C.3     1  UNL1        0.0000
     17 C           9.0201   -2.9663    3.6690 C.3     1  UNL1        0.0000
     18 C           6.9380   -0.9003    4.6369 C.3     1  UNL1        0.0000
     19 C           8.2297   -0.5598    1.8244 C.3     1  UNL1        0.0000
     20 H          11.4726    0.7811    1.2705 H       1  UNL1        0.0000
     21 H          10.1671    3.1169    1.8097 H       1  UNL1        0.0000
     22 H          10.5233   -0.5298    5.1012 H       1  UNL1        0.0000
     23 H           8.5479    2.8467    5.9406 H       1  UNL1        0.0000
     24 H           8.4575    1.1245    6.5625 H       1  UNL1        0.0000
     25 H          14.6715   -0.6803    0.7621 H       1  UNL1        0.0000
     26 H          15.2160   -1.4977    2.2015 H       1  UNL1        0.0000
     27 H          14.8468    0.2205    2.2621 H       1  UNL1        0.0000
     28 H          13.4242   -2.9331    3.9154 H       1  UNL1        0.0000
     29 H          11.8117   -2.3873    4.3137 H       1  UNL1        0.0000
     30 H          13.2030   -1.4172    4.7603 H       1  UNL1        0.0000
     31 H          12.1844   -2.0220   -0.0183 H       1  UNL1        0.0000
     32 H          11.0954   -2.7449    1.1436 H       1  UNL1        0.0000
     33 H          12.7400   -3.3324    0.9993 H       1  UNL1        0.0000
     34 H          11.0970    5.6220    5.0968 H       1  UNL1        0.0000
     35 H           9.7959    4.8505    5.9883 H       1  UNL1        0.0000
     36 H           9.5678    6.4472    5.3186 H       1  UNL1        0.0000
     37 H           8.7635    6.8861    2.3103 H       1  UNL1        0.0000
     38 H           9.5165    5.7893    1.1771 H       1  UNL1        0.0000
     39 H          10.4971    6.6905    2.3226 H       1  UNL1        0.0000
     40 H           6.9983    5.2558    4.2664 H       1  UNL1        0.0000
     41 H           7.2239    3.5245    4.1009 H       1  UNL1        0.0000
     42 H           6.9756    4.5132    2.6802 H       1  UNL1        0.0000
     43 H           9.9009   -3.1772    3.0727 H       1  UNL1        0.0000
     44 H           8.2088   -3.5746    3.2821 H       1  UNL1        0.0000
     45 H           9.2190   -3.3005    4.6828 H       1  UNL1        0.0000
     46 H           6.6085    0.1335    4.6397 H       1  UNL1        0.0000
     47 H           7.0759   -1.2038    5.6699 H       1  UNL1        0.0000
     48 H           6.1349   -1.5034    4.2249 H       1  UNL1        0.0000
     49 H           9.0908   -0.7632    1.1950 H       1  UNL1        0.0000
     50 H           8.0369    0.5084    1.7824 H       1  UNL1        0.0000
     51 H           7.3744   -1.0672    1.3891 H       1  UNL1        0.0000
@<TRIPOS>BOND
     1    31    13    1
     2    25    11    1
     3    13    33    1
     4    13    32    1
     5    13     1    1
     6    38    15    1
     7    49    19    1
     8    20     4    1
     9    51    19    1
    10    50    19    1
    11    21     7    1
    12    19     3    1
    13    11    26    1
    14    11    27    1
    15    11     1    1
    16    15    37    1
    17    15    39    1
    18    15     2    1
    19     4     1    1
    20     4     5    1
    21     1    12    1
    22    42    16    1
    23     7     2    1
    24     7     6    1
    25    43    17    1
    26     5     6    2
    27     5     8    1
    28    44    17    1
    29     2    16    1
    30     2    14    1
    31     6     9    1
    32     3    17    1
    33     3     8    1
    34     3    18    1
    35    16    41    1
    36    16    40    1
    37    17    45    1
    38    28    12    1
    39    12    29    1
    40    12    30    1
    41    48    18    1
    42     8     9    1
    43     8    22    1
    44    18    46    1
    45    18    47    1
    46     9    10    2
    47    34    14    1
    48    14    36    1
    49    14    35    1
    50    10    23    1
    51    10    24    1
