@<TRIPOS>MOLECULE
2,4,7,9
 33 34 0 0 0
SMALL
GASTEIGER

@<TRIPOS>ATOM
      1 SI          7.2694   21.2317    5.4422 Si      1  UNL1        0.0000
      2 C           6.2987   22.3559    6.6307 C.3     1  UNL1        0.0000
      3 H           6.4344   23.4319    6.6017 H       1  UNL1        0.0000
      4 C           5.4790   21.8247    7.6024 C.3     1  UNL1        0.0000
      5 H           5.6158   20.7977    7.9187 H       1  UNL1        0.0000
      6 H           5.0389   22.4696    8.3552 H       1  UNL1        0.0000
      7 C           5.7964   20.4108    4.5794 C.3     1  UNL1        0.0000
      8 H           5.6511   20.5105    3.5097 H       1  UNL1        0.0000
      9 C           4.9262   19.6193    5.2957 C.3     1  UNL1        0.0000
     10 H           5.2375   19.1952    6.2420 H       1  UNL1        0.0000
     11 H           4.1655   19.0434    4.7817 H       1  UNL1        0.0000
     12 C           8.3676   20.0033    6.3766 C.ar    1  UNL1        0.0000
     13 C           8.8946   20.3144    7.6272 C.ar    1  UNL1        0.0000
     14 H           8.6485   21.2630    8.0829 H       1  UNL1        0.0000
     15 C           9.7250   19.4284    8.2897 C.ar    1  UNL1        0.0000
     16 H          10.1262   19.6862    9.2593 H       1  UNL1        0.0000
     17 C          10.0430   18.2114    7.7102 C.ar    1  UNL1        0.0000
     18 H          10.6921   17.5186    8.2257 H       1  UNL1        0.0000
     19 C           9.5252   17.8855    6.4676 C.ar    1  UNL1        0.0000
     20 H           9.7700   16.9366    6.0124 H       1  UNL1        0.0000
     21 C           8.6957   18.7749    5.8091 C.ar    1  UNL1        0.0000
     22 H           8.2927   18.5182    4.8400 H       1  UNL1        0.0000
     23 C           8.2576   22.2673    4.2144 C.ar    1  UNL1        0.0000
     24 C           7.6120   23.2082    3.4170 C.ar    1  UNL1        0.0000
     25 H           6.5431   23.3389    3.5145 H       1  UNL1        0.0000
     26 C           8.3172   23.9725    2.5063 C.ar    1  UNL1        0.0000
     27 H           7.8004   24.6988    1.8958 H       1  UNL1        0.0000
     28 C           9.6863   23.8063    2.3772 C.ar    1  UNL1        0.0000
     29 H          10.2397   24.4020    1.6659 H       1  UNL1        0.0000
     30 C          10.3429   22.8736    3.1624 C.ar    1  UNL1        0.0000
     31 H          11.4107   22.7404    3.0643 H       1  UNL1        0.0000
     32 C           9.6317   22.1122    4.0723 C.ar    1  UNL1        0.0000
     33 H          10.1453   21.3844    4.6841 H       1  UNL1        0.0000
@<TRIPOS>BOND
     1    29    28    1
     2    27    26    1
     3    28    26   ar
     4    28    30   ar
     5    26    24   ar
     6    31    30    1
     7    30    32   ar
     8    24    25    1
     9    24    23   ar
    10     8     7    1
    11    32    23   ar
    12    32    33    1
    13    23     1    1
    14     7     9    1
    15     7     1    1
    16    11     9    1
    17    22    21    1
    18     9    10    1
    19     1    12    1
    20     1     2    1
    21    21    12   ar
    22    21    19   ar
    23    20    19    1
    24    12    13   ar
    25    19    17   ar
    26     3     2    1
    27     2     4    1
    28     4     5    1
    29     4     6    1
    30    13    14    1
    31    13    15   ar
    32    17    18    1
    33    17    15   ar
    34    15    16    1
