@<TRIPOS>MOLECULE
2,4,18,20
 30 29 0 0 0
SMALL
GASTEIGER

@<TRIPOS>ATOM
      1 SI          4.1953    3.3669   -0.2531 Si      1  UNL1        0.0000
      2 C           2.4628    2.6624    0.0092 C.3     1  UNL1        0.0000
      3 H           1.6918    3.4012    0.2119 H       1  UNL1        0.0000
      4 C           2.0441    1.4676   -0.5269 C.3     1  UNL1        0.0000
      5 H           2.7494    0.8373   -1.0544 H       1  UNL1        0.0000
      6 H           1.0086    1.3143   -0.8132 H       1  UNL1        0.0000
      7 C           5.4078    2.0665   -0.9391 C.3     1  UNL1        0.0000
      8 H           6.3991    2.4920   -1.0639 H       1  UNL1        0.0000
      9 H           5.0896    1.6958   -1.9084 H       1  UNL1        0.0000
     10 H           5.5030    1.2157   -0.2742 H       1  UNL1        0.0000
     11 C           4.0460    4.8068   -1.4964 C.3     1  UNL1        0.0000
     12 H           3.4043    5.5941   -1.1152 H       1  UNL1        0.0000
     13 H           3.6305    4.4703   -2.4402 H       1  UNL1        0.0000
     14 H           5.0167    5.2450   -1.7045 H       1  UNL1        0.0000
     15 N           4.7362    4.0608    1.2495 N.3     1  UNL1        0.0000
     16 H           5.3582    4.8465    1.1498 H       1  UNL1        0.0000
     17 SI          4.5866    3.4539    2.8746 Si      1  UNL1        0.0000
     18 C           2.8480    2.7473    3.0859 C.3     1  UNL1        0.0000
     19 H           2.0457    3.4792    3.0396 H       1  UNL1        0.0000
     20 C           2.5825    1.5864    3.7728 C.3     1  UNL1        0.0000
     21 H           3.4004    0.9810    4.1438 H       1  UNL1        0.0000
     22 H           1.6506    1.4559    4.3134 H       1  UNL1        0.0000
     23 C           5.9405    2.1856    3.3107 C.3     1  UNL1        0.0000
     24 H           5.8826    1.3041    2.6825 H       1  UNL1        0.0000
     25 H           5.8668    1.8617    4.3442 H       1  UNL1        0.0000
     26 H           6.9287    2.6150    3.1753 H       1  UNL1        0.0000
     27 C           4.7371    4.9607    4.0357 C.3     1  UNL1        0.0000
     28 H           5.7233    5.4085    3.9682 H       1  UNL1        0.0000
     29 H           4.5772    4.6776    5.0706 H       1  UNL1        0.0000
     30 H           4.0101    5.7265    3.7870 H       1  UNL1        0.0000
@<TRIPOS>BOND
     1    13    11    1
     2     9     7    1
     3    14    11    1
     4    11    12    1
     5    11     1    1
     6     8     7    1
     7     5     4    1
     8     7    10    1
     9     7     1    1
    10     6     4    1
    11     4     2    1
    12     1     2    1
    13     1    15    1
    14     2     3    1
    15    16    15    1
    16    15    17    1
    17    24    23    1
    18    17    18    1
    19    17    23    1
    20    17    27    1
    21    19    18    1
    22    18    20    1
    23    26    23    1
    24    23    25    1
    25    20    21    1
    26    20    22    1
    27    30    27    1
    28    28    27    1
    29    27    29    1
