@<TRIPOS>MOLECULE
2,4,17,19
 29 28 0 0 0
SMALL
GASTEIGER

@<TRIPOS>ATOM
      1 SI          1.5332    0.5528    3.5139 Si      1  UNL1        0.0000
      2 C           2.9682    1.0070    2.3638 C.3     1  UNL1        0.0000
      3 H           3.0791    0.3814    1.4811 H       1  UNL1        0.0000
      4 C           4.0873    1.6967    2.7673 C.3     1  UNL1        0.0000
      5 H           4.1617    2.0535    3.7870 H       1  UNL1        0.0000
      6 H           5.0434    1.5463    2.2769 H       1  UNL1        0.0000
      7 C           1.7789    1.2027    5.2824 C.3     1  UNL1        0.0000
      8 H           1.8730    2.2832    5.3052 H       1  UNL1        0.0000
      9 H           2.6689    0.7802    5.7372 H       1  UNL1        0.0000
     10 H           0.9326    0.9382    5.9087 H       1  UNL1        0.0000
     11 C           1.3200   -1.3386    3.4767 C.3     1  UNL1        0.0000
     12 H           0.4610   -1.6399    4.0672 H       1  UNL1        0.0000
     13 H           2.1915   -1.8444    3.8786 H       1  UNL1        0.0000
     14 H           1.1629   -1.6998    2.4653 H       1  UNL1        0.0000
     15 O           0.1498    1.1998    2.9287 O.3     1  UNL1        0.0000
     16 SI         -0.4578    2.1380    1.7348 Si      1  UNL1        0.0000
     17 C           0.9395    2.6226    0.5514 C.3     1  UNL1        0.0000
     18 H           1.1983    1.8797   -0.1997 H       1  UNL1        0.0000
     19 C           1.2936    3.9216    0.2719 C.3     1  UNL1        0.0000
     20 H           0.7913    4.7374    0.7767 H       1  UNL1        0.0000
     21 H           1.7252    4.1892   -0.6870 H       1  UNL1        0.0000
     22 C          -1.7061    1.0708    0.7719 C.3     1  UNL1        0.0000
     23 H          -1.2263    0.2057    0.3252 H       1  UNL1        0.0000
     24 H          -2.1806    1.6353   -0.0238 H       1  UNL1        0.0000
     25 H          -2.4877    0.7060    1.4303 H       1  UNL1        0.0000
     26 C          -1.2886    3.6442    2.5420 C.3     1  UNL1        0.0000
     27 H          -2.0748    3.3298    3.2213 H       1  UNL1        0.0000
     28 H          -1.7382    4.2924    1.7969 H       1  UNL1        0.0000
     29 H          -0.5822    4.2345    3.1158 H       1  UNL1        0.0000
@<TRIPOS>BOND
     1    21    19    1
     2    18    17    1
     3    24    22    1
     4    19    17    1
     5    19    20    1
     6    23    22    1
     7    17    16    1
     8    22    25    1
     9    22    16    1
    10     3     2    1
    11    16    26    1
    12    16    15    1
    13    28    26    1
    14     6     4    1
    15     2     4    1
    16     2     1    1
    17    14    11    1
    18    26    29    1
    19    26    27    1
    20     4     5    1
    21    15     1    1
    22    11     1    1
    23    11    13    1
    24    11    12    1
    25     1     7    1
    26     7     8    1
    27     7     9    1
    28     7    10    1
