@<TRIPOS>MOLECULE
11,12,13,14
 62 64 0 0 0
SMALL
GASTEIGER

@<TRIPOS>ATOM
      1 SI          6.4808    6.6405    1.7253 Si      1  UNL1        0.0000
      2 SI          4.2414    4.3474    0.8380 Si      1  UNL1        0.0000
      3 SI          3.8226    1.2421    1.0919 Si      1  UNL1        0.0000
      4 SI          6.8139    0.9694    0.4747 Si      1  UNL1        0.0000
      5 SI          9.9803    3.6980    1.6437 Si      1  UNL1        0.0000
      6 SI          9.6791    6.7757    1.9172 Si      1  UNL1        0.0000
      7 O           8.0638    6.6969    2.1052 O.3     1  UNL1        0.0000
      8 O           3.9282    2.8428    1.3890 O.3     1  UNL1        0.0000
      9 O           5.1948    0.7597    0.3541 O.3     1  UNL1        0.0000
     10 O          10.2225    5.3058    1.4695 O.3     1  UNL1        0.0000
     11 C           6.9286    3.8768    1.3303 C.3     1  UNL1        0.0000
     12 C           8.1578    3.4208    1.8947 C.3     1  UNL1        0.0000
     13 C           7.0949    2.4733    1.5303 C.3     1  UNL1        0.0000
     14 C           5.9699    4.8402    1.4451 C.3     1  UNL1        0.0000
     15 C           5.5644    7.3698    3.2241 C.3     1  UNL1        0.0000
     16 C           6.1706    7.6486    0.1373 C.3     1  UNL1        0.0000
     17 C           2.8866    5.4651    1.5584 C.3     1  UNL1        0.0000
     18 C           4.2293    4.3518   -1.0696 C.3     1  UNL1        0.0000
     19 C           2.4191    0.9063   -0.1380 C.3     1  UNL1        0.0000
     20 C           3.6579    0.3645    2.7607 C.3     1  UNL1        0.0000
     21 C           7.4250    1.2634   -1.3069 C.3     1  UNL1        0.0000
     22 C           7.5876   -0.5696    1.2751 C.3     1  UNL1        0.0000
     23 C          10.6093    2.8994    0.0355 C.3     1  UNL1        0.0000
     24 C          10.8979    3.0719    3.1855 C.3     1  UNL1        0.0000
     25 C          10.4076    7.2621    3.5975 C.3     1  UNL1        0.0000
     26 C          10.1138    7.9526    0.4945 C.3     1  UNL1        0.0000
     27 H           4.5259    7.5774    2.9942 H       1  UNL1        0.0000
     28 H           5.5841    6.6799    4.0629 H       1  UNL1        0.0000
     29 H           6.0242    8.2978    3.5493 H       1  UNL1        0.0000
     30 H           5.1179    7.6577   -0.1250 H       1  UNL1        0.0000
     31 H           6.4891    8.6782    0.2663 H       1  UNL1        0.0000
     32 H           6.7196    7.2406   -0.7059 H       1  UNL1        0.0000
     33 H           3.0142    6.4927    1.2375 H       1  UNL1        0.0000
     34 H           1.9031    5.1372    1.2380 H       1  UNL1        0.0000
     35 H           2.8991    5.4492    2.6429 H       1  UNL1        0.0000
     36 H           4.6159    5.2792   -1.4790 H       1  UNL1        0.0000
     37 H           4.8365    3.5362   -1.4511 H       1  UNL1        0.0000
     38 H           3.2222    4.2168   -1.4526 H       1  UNL1        0.0000
     39 H           2.3110   -0.1550   -0.3331 H       1  UNL1        0.0000
     40 H           1.4730    1.2698    0.2485 H       1  UNL1        0.0000
     41 H           2.6014    1.3996   -1.0874 H       1  UNL1        0.0000
     42 H           3.4623   -0.6942    2.6252 H       1  UNL1        0.0000
     43 H           4.5765    0.4615    3.3327 H       1  UNL1        0.0000
     44 H           2.8522    0.7774    3.3571 H       1  UNL1        0.0000
     45 H           8.4986    1.1303   -1.3803 H       1  UNL1        0.0000
     46 H           6.9554    0.5674   -1.9956 H       1  UNL1        0.0000
     47 H           7.1939    2.2691   -1.6456 H       1  UNL1        0.0000
     48 H           8.6686   -0.4860    1.3160 H       1  UNL1        0.0000
     49 H           7.2301   -0.7042    2.2910 H       1  UNL1        0.0000
     50 H           7.3455   -1.4701    0.7197 H       1  UNL1        0.0000
     51 H          10.5250    1.8193    0.0882 H       1  UNL1        0.0000
     52 H          10.0443    3.2377   -0.8270 H       1  UNL1        0.0000
     53 H          11.6525    3.1441   -0.1377 H       1  UNL1        0.0000
     54 H          10.7576    2.0043    3.3183 H       1  UNL1        0.0000
     55 H          11.9650    3.2616    3.1261 H       1  UNL1        0.0000
     56 H          10.5243    3.5630    4.0789 H       1  UNL1        0.0000
     57 H          11.4864    7.1450    3.6053 H       1  UNL1        0.0000
     58 H          10.1852    8.2952    3.8438 H       1  UNL1        0.0000
     59 H          10.0013    6.6422    4.3903 H       1  UNL1        0.0000
     60 H          11.1872    8.0304    0.3591 H       1  UNL1        0.0000
     61 H           9.6877    7.6101   -0.4433 H       1  UNL1        0.0000
     62 H           9.7318    8.9497    0.6865 H       1  UNL1        0.0000
@<TRIPOS>BOND
     1    46    21    1
     2    47    21    1
     3    36    18    1
     4    38    18    1
     5    37    18    1
     6    45    21    1
     7    21     4    1
     8    41    19    1
     9    18     2    1
    10    52    23    1
    11    32    16    1
    12    61    26    1
    13    39    19    1
    14    19    40    1
    15    19     3    1
    16    53    23    1
    17    30    16    1
    18    23    51    1
    19    23     5    1
    20    16    31    1
    21    16     1    1
    22     9     4    1
    23     9     3    1
    24    60    26    1
    25     4    22    1
    26     4    13    1
    27    26    62    1
    28    26     6    1
    29    50    22    1
    30     2     8    1
    31     2    14    1
    32     2    17    1
    33     3     8    1
    34     3    20    1
    35    33    17    1
    36    34    17    1
    37    22    48    1
    38    22    49    1
    39    11    14    1
    40    11    13    1
    41    11    12    1
    42    14     1    1
    43    10     5    1
    44    10     6    1
    45    13    12    1
    46    17    35    1
    47     5    12    1
    48     5    24    1
    49     1     7    1
    50     1    15    1
    51     6     7    1
    52     6    25    1
    53    42    20    1
    54    20    43    1
    55    20    44    1
    56    27    15    1
    57    55    24    1
    58    24    54    1
    59    24    56    1
    60    15    29    1
    61    15    28    1
    62    25    57    1
    63    25    58    1
    64    25    59    1
