@<TRIPOS>MOLECULE
1,3,11,13
 20 20 0 0 0
SMALL
GASTEIGER

@<TRIPOS>ATOM
      1 C           9.5029    2.2491    5.0794 C.3     1  UNL1       -0.0348
      2 H          10.2999    1.6802    5.5586 H       1  UNL1        0.0306
      3 C           8.5024    1.5063    4.4445 C.3     1  UNL1       -0.0348
      4 H           8.5869    0.4210    4.5032 H       1  UNL1        0.0306
      5 C           7.0793    1.9733    4.2379 C.3     1  UNL1       -0.0494
      6 H           6.5351    1.9167    5.1884 H       1  UNL1        0.0268
      7 H           6.5941    1.2774    3.5477 H       1  UNL1        0.0268
      8 C           6.9834    3.3997    3.6637 C.3     1  UNL1       -0.0494
      9 H           6.0704    3.4798    3.0702 H       1  UNL1        0.0268
     10 H           6.9083    4.1300    4.4708 H       1  UNL1        0.0268
     11 C           8.1713    3.7464    2.7936 C.3     1  UNL1       -0.0348
     12 H           7.9580    3.8176    1.7267 H       1  UNL1        0.0306
     13 C           9.3011    4.3820    3.2655 C.3     1  UNL1       -0.0348
     14 H           9.9039    4.9483    2.5552 H       1  UNL1        0.0306
     15 C           9.5395    4.7620    4.7093 C.3     1  UNL1       -0.0494
     16 H           8.9218    5.6314    4.9608 H       1  UNL1        0.0268
     17 H          10.5839    5.0697    4.8097 H       1  UNL1        0.0268
     18 C           9.2591    3.6119    5.6960 C.3     1  UNL1       -0.0494
     19 H           8.2297    3.6604    6.0549 H       1  UNL1        0.0268
     20 H           9.9074    3.7311    6.5671 H       1  UNL1        0.0268
@<TRIPOS>BOND
     1    12    11    1
     2    14    13    1
     3    11    13    1
     4    11     8    1
     5     9     8    1
     6    13    15    1
     7     7     5    1
     8     8     5    1
     9     8    10    1
    10     5     3    1
    11     5     6    1
    12     3     4    1
    13     3     1    1
    14    15    17    1
    15    15    16    1
    16    15    18    1
    17     1     2    1
    18     1    18    1
    19    18    19    1
    20    18    20    1
