@<TRIPOS>MOLECULE
5,6,7,8
 62 64 0 0 0
SMALL
GASTEIGER

@<TRIPOS>ATOM
      1 SI         -2.0607   -0.0685   11.9189 Si      1  UNL1        0.0000
      2 SI         -4.4525    0.9084    6.7794 Si      1  UNL1        0.0000
      3 N          -1.5846   -0.4813    8.1606 N.3     1  UNL1        0.0000
      4 N          -5.1635    1.4264   10.4634 N.pl3   1  UNL1        0.0000
      5 C          -2.7035    0.6564   10.3011 C.2     1  UNL1        0.0000
      6 C          -2.3139    0.4884    8.8679 C.3     1  UNL1        0.0000
      7 C          -3.6117    1.0623    8.4595 C.3     1  UNL1        0.0000
      8 C          -3.9991    1.1311    9.8522 C.2     1  UNL1        0.0000
      9 C          -0.2793   -0.7342   11.7929 C.3     1  UNL1        0.0000
     10 C          -3.2026   -1.5270   12.4061 C.3     1  UNL1        0.0000
     11 C          -2.0213    1.2648   13.2956 C.3     1  UNL1        0.0000
     12 C          -3.1301    0.4969    5.4765 C.3     1  UNL1        0.0000
     13 C          -5.7300   -0.5142    6.8881 C.3     1  UNL1        0.0000
     14 C          -5.3209    2.5330    6.2538 C.3     1  UNL1        0.0000
     15 C          -0.1395   -0.3509    8.1449 C.3     1  UNL1        0.0000
     16 C           0.4356   -1.2485    7.0529 C.3     1  UNL1        0.0000
     17 C           0.0365   -2.6985    7.3086 C.3     1  UNL1        0.0000
     18 C          -1.4833   -2.7953    7.3924 C.3     1  UNL1        0.0000
     19 C          -2.0109   -1.8388    8.4582 C.3     1  UNL1        0.0000
     20 C          -5.1735    1.7325   11.8794 C.3     1  UNL1        0.0000
     21 C          -6.5399    1.4151   12.4799 C.3     1  UNL1        0.0000
     22 C          -7.6290    2.1942   11.7509 C.3     1  UNL1        0.0000
     23 C          -7.5574    1.8678   10.2633 C.3     1  UNL1        0.0000
     24 C          -6.1632    2.1732    9.7251 C.3     1  UNL1        0.0000
     25 H          -0.1991   -1.6096   11.1564 H       1  UNL1        0.0000
     26 H           0.0792   -1.0205   12.7780 H       1  UNL1        0.0000
     27 H           0.3963    0.0244   11.4099 H       1  UNL1        0.0000
     28 H          -4.2400   -1.2245   12.5095 H       1  UNL1        0.0000
     29 H          -2.8900   -1.9544   13.3540 H       1  UNL1        0.0000
     30 H          -3.1700   -2.3192   11.6641 H       1  UNL1        0.0000
     31 H          -2.7774    1.1000   14.0583 H       1  UNL1        0.0000
     32 H          -2.1712    2.2608   12.8866 H       1  UNL1        0.0000
     33 H          -1.0577    1.2668   13.7965 H       1  UNL1        0.0000
     34 H          -2.5192    1.3678    5.2615 H       1  UNL1        0.0000
     35 H          -3.5793    0.1691    4.5433 H       1  UNL1        0.0000
     36 H          -2.4670   -0.2837    5.8306 H       1  UNL1        0.0000
     37 H          -6.4123   -0.3939    7.7244 H       1  UNL1        0.0000
     38 H          -5.2375   -1.4747    7.0039 H       1  UNL1        0.0000
     39 H          -6.3269   -0.5612    5.9825 H       1  UNL1        0.0000
     40 H          -6.3860    2.5312    6.4655 H       1  UNL1        0.0000
     41 H          -5.2087    2.6891    5.1856 H       1  UNL1        0.0000
     42 H          -4.8830    3.3925    6.7538 H       1  UNL1        0.0000
     43 H           0.0963    0.6969    7.9411 H       1  UNL1        0.0000
     44 H           0.3097   -0.6225    9.1123 H       1  UNL1        0.0000
     45 H           1.5220   -1.1484    7.0343 H       1  UNL1        0.0000
     46 H           0.0448   -0.9274    6.0861 H       1  UNL1        0.0000
     47 H           0.4763   -3.0363    8.2505 H       1  UNL1        0.0000
     48 H           0.4130   -3.3425    6.5117 H       1  UNL1        0.0000
     49 H          -1.9172   -2.5284    6.4272 H       1  UNL1        0.0000
     50 H          -1.7903   -3.8146    7.6347 H       1  UNL1        0.0000
     51 H          -1.6537   -2.1626    9.4513 H       1  UNL1        0.0000
     52 H          -3.1038   -1.8528    8.4712 H       1  UNL1        0.0000
     53 H          -4.4042    1.1427   12.3696 H       1  UNL1        0.0000
     54 H          -4.9392    2.7983   12.0284 H       1  UNL1        0.0000
     55 H          -6.7327    0.3446   12.3831 H       1  UNL1        0.0000
     56 H          -6.5326    1.6660   13.5414 H       1  UNL1        0.0000
     57 H          -8.6116    1.9377   12.1498 H       1  UNL1        0.0000
     58 H          -7.4735    3.2653   11.8983 H       1  UNL1        0.0000
     59 H          -8.2933    2.4492    9.7062 H       1  UNL1        0.0000
     60 H          -7.7744    0.8083   10.1130 H       1  UNL1        0.0000
     61 H          -5.9563    3.2513    9.8128 H       1  UNL1        0.0000
     62 H          -6.0979    1.8988    8.6753 H       1  UNL1        0.0000
@<TRIPOS>BOND
     1    35    12    1
     2    41    14    1
     3    34    12    1
     4    12    36    1
     5    12     2    1
     6    39    13    1
     7    46    16    1
     8    14    40    1
     9    14    42    1
    10    14     2    1
    11    49    18    1
    12    48    17    1
    13     2    13    1
    14     2     7    1
    15    13    38    1
    16    13    37    1
    17    45    16    1
    18    16    17    1
    19    16    15    1
    20    17    18    1
    21    17    47    1
    22    18    50    1
    23    18    19    1
    24    43    15    1
    25    15     3    1
    26    15    44    1
    27     3    19    1
    28     3     6    1
    29    19    52    1
    30    19    51    1
    31     7     6    1
    32     7     8    1
    33    62    24    1
    34     6     5    1
    35    59    23    1
    36    24    61    1
    37    24    23    1
    38    24     4    1
    39     8     5    2
    40     8     4    1
    41    60    23    1
    42    23    22    1
    43     5     1    1
    44     4    20    1
    45    25     9    1
    46    27     9    1
    47    30    10    1
    48    22    58    1
    49    22    57    1
    50    22    21    1
    51     9     1    1
    52     9    26    1
    53    20    54    1
    54    20    53    1
    55    20    21    1
    56     1    10    1
    57     1    11    1
    58    55    21    1
    59    10    28    1
    60    10    29    1
    61    21    56    1
    62    32    11    1
    63    11    33    1
    64    11    31    1
