@<TRIPOS>MOLECULE
1,2,3,5
 25 25 0 0 0
SMALL
GASTEIGER

@<TRIPOS>ATOM
      1 C          -2.2685   -4.8784   -3.8994 C.3     1  UNL1        0.0231
      2 C          -3.0890   -5.9715   -4.3105 C.2     1  UNL1       -0.0584
      3 C          -3.5651   -5.6964   -5.6178 C.2     1  UNL1       -0.0477
      4 C          -3.0345   -4.4473   -6.0257 C.2     1  UNL1       -0.0477
      5 C          -2.2404   -3.9304   -4.9681 C.2     1  UNL1       -0.0584
      6 C          -1.4678   -4.8391   -2.6232 C.3     1  UNL1       -0.0510
      7 C          -3.3482   -7.2478   -3.5572 C.3     1  UNL1       -0.0424
      8 C          -4.3504   -6.6569   -6.4663 C.3     1  UNL1       -0.0395
      9 C          -3.1353   -3.8604   -7.4057 C.3     1  UNL1       -0.0395
     10 C          -1.2122   -2.8478   -5.1733 C.3     1  UNL1       -0.0424
     11 H          -0.6838   -5.5996   -2.6438 H       1  UNL1        0.0242
     12 H          -2.1049   -5.0353   -1.7586 H       1  UNL1        0.0242
     13 H          -0.9885   -3.8706   -2.4880 H       1  UNL1        0.0242
     14 H          -2.7063   -8.0481   -3.9346 H       1  UNL1        0.0275
     15 H          -4.3881   -7.5581   -3.6824 H       1  UNL1        0.0275
     16 H          -3.1478   -7.1176   -2.4953 H       1  UNL1        0.0275
     17 H          -3.6793   -7.3914   -6.9194 H       1  UNL1        0.0278
     18 H          -4.8690   -6.1399   -7.2739 H       1  UNL1        0.0278
     19 H          -5.0841   -7.2046   -5.8721 H       1  UNL1        0.0278
     20 H          -2.4238   -4.3477   -8.0774 H       1  UNL1        0.0278
     21 H          -2.9112   -2.7957   -7.3952 H       1  UNL1        0.0278
     22 H          -4.1340   -3.9980   -7.8184 H       1  UNL1        0.0278
     23 H          -0.4457   -3.2080   -5.8648 H       1  UNL1        0.0275
     24 H          -0.7145   -2.5814   -4.2452 H       1  UNL1        0.0275
     25 H          -1.6441   -1.9483   -5.6098 H       1  UNL1        0.0275
@<TRIPOS>BOND
     1    20     9    1
     2    22     9    1
     3     9    21    1
     4     9     4    1
     5    18     8    1
     6    17     8    1
     7     8    19    1
     8     8     3    1
     9     4     3    1
    10     4     5    2
    11    23    10    1
    12     3     2    2
    13    25    10    1
    14    10     5    1
    15    10    24    1
    16     5     1    1
    17     2     1    1
    18     2     7    1
    19    14     7    1
    20     1     6    1
    21    15     7    1
    22     7    16    1
    23    11     6    1
    24     6    13    1
    25     6    12    1
