@<TRIPOS>MOLECULE
1,2,3,4
 41 40 0 0 0
SMALL
GASTEIGER

@<TRIPOS>ATOM
      1 C           1.8766   12.0192    2.2543 C.3     1  UNL1        0.0000
      2 C           1.3070   11.4457    3.4221 C.3     1  UNL1        0.0000
      3 C           1.7754   10.1320    3.7137 C.3     1  UNL1        0.0000
      4 C           2.8423    9.6786    2.9416 C.3     1  UNL1        0.0000
      5 C           3.2680    8.6570    2.2267 C.3     1  UNL1        0.0000
      6 O           4.6082    8.6911    1.8174 O.3     1  UNL1        0.0000
      7 C           5.1751    7.5779    1.4068 C.2     1  UNL1        0.0000
      8 O           4.6124    6.5069    1.3621 O.2     1  UNL1        0.0000
      9 C           6.6089    7.7967    0.9955 C.3     1  UNL1        0.0000
     10 SI          0.0457   12.3256    4.5345 Si      1  UNL1        0.0000
     11 C           0.2101   14.2167    4.3460 C.3     1  UNL1        0.0000
     12 C          -1.6712   11.7464    3.9337 C.3     1  UNL1        0.0000
     13 C           0.3150   11.8205    6.3561 C.3     1  UNL1        0.0000
     14 SI          2.1117    7.2431    1.6303 Si      1  UNL1        0.0000
     15 C           0.3657    8.0003    1.8526 C.3     1  UNL1        0.0000
     16 C           2.1382    5.6993    2.7507 C.3     1  UNL1        0.0000
     17 C           2.2683    6.9256   -0.2475 C.3     1  UNL1        0.0000
     18 H           1.9785   11.4175    1.3552 H       1  UNL1        0.0000
     19 H           1.6500   13.0591    2.0486 H       1  UNL1        0.0000
     20 H           1.4167    9.5860    4.5793 H       1  UNL1        0.0000
     21 H           6.6788    7.7149   -0.0875 H       1  UNL1        0.0000
     22 H           7.2349    7.0237    1.4332 H       1  UNL1        0.0000
     23 H           6.9422    8.7813    1.3079 H       1  UNL1        0.0000
     24 H          -0.4205   14.7328    5.0633 H       1  UNL1        0.0000
     25 H           1.2312   14.5485    4.5054 H       1  UNL1        0.0000
     26 H          -0.0914   14.5426    3.3554 H       1  UNL1        0.0000
     27 H          -1.8498   12.0394    2.9037 H       1  UNL1        0.0000
     28 H          -2.4599   12.1789    4.5409 H       1  UNL1        0.0000
     29 H          -1.7679   10.6663    3.9865 H       1  UNL1        0.0000
     30 H           0.0325   10.7858    6.5258 H       1  UNL1        0.0000
     31 H          -0.2813   12.4327    7.0257 H       1  UNL1        0.0000
     32 H           1.3552   11.9288    6.6486 H       1  UNL1        0.0000
     33 H           0.2765    8.9773    1.3893 H       1  UNL1        0.0000
     34 H           0.1063    8.1139    2.8992 H       1  UNL1        0.0000
     35 H          -0.3833    7.3557    1.4039 H       1  UNL1        0.0000
     36 H           3.0218    5.0945    2.5875 H       1  UNL1        0.0000
     37 H           1.2659    5.0837    2.5542 H       1  UNL1        0.0000
     38 H           2.1116    5.9812    3.7994 H       1  UNL1        0.0000
     39 H           3.0256    6.1809   -0.4637 H       1  UNL1        0.0000
     40 H           1.3253    6.5728   -0.6534 H       1  UNL1        0.0000
     41 H           2.5343    7.8348   -0.7802 H       1  UNL1        0.0000
@<TRIPOS>BOND
     1    41    17    1
     2    40    17    1
     3    39    17    1
     4    17    14    1
     5    21     9    1
     6     9    23    1
     7     9     7    1
     8     9    22    1
     9    18     1    1
    10     8     7    2
    11    33    15    1
    12    35    15    1
    13     7     6    1
    14    14    15    1
    15    14     5    1
    16    14    16    1
    17     6     5    1
    18    15    34    1
    19    19     1    1
    20     5     4    1
    21     1     2    1
    22    37    16    1
    23    36    16    1
    24    16    38    1
    25    27    12    1
    26     4     3    1
    27    26    11    1
    28     2     3    1
    29     2    10    1
    30     3    20    1
    31    12    29    1
    32    12    10    1
    33    12    28    1
    34    11    25    1
    35    11    10    1
    36    11    24    1
    37    10    13    1
    38    13    30    1
    39    13    32    1
    40    13    31    1
