@<TRIPOS>MOLECULE
2,3,4,5
 25 25 0 0 0
SMALL
GASTEIGER

@<TRIPOS>ATOM
      1 C           5.4519    8.4617    4.8988 C.2     1  UNL1       -0.0658
      2 C           5.0699    7.6408    5.9597 C.2     1  UNL1       -0.0658
      3 C           3.8833    8.1684    6.5619 C.3     1  UNL1        0.0052
      4 C           3.5623    9.3971    5.8588 C.3     1  UNL1       -0.0053
      5 C           4.5242    9.5457    4.7820 C.3     1  UNL1        0.0052
      6 C           6.6919    8.2664    4.0785 C.3     1  UNL1       -0.0430
      7 H           7.5765    8.4815    4.6825 H       1  UNL1        0.0275
      8 H           6.7016    8.9290    3.2165 H       1  UNL1        0.0275
      9 H           6.7680    7.2383    3.7234 H       1  UNL1        0.0275
     10 C           5.8453    6.4491    6.4364 C.3     1  UNL1       -0.0430
     11 H           6.1021    5.7907    5.6063 H       1  UNL1        0.0275
     12 H           5.2760    5.8774    7.1653 H       1  UNL1        0.0275
     13 H           6.7748    6.7739    6.9100 H       1  UNL1        0.0275
     14 C           3.3496    7.7847    7.9124 C.3     1  UNL1       -0.0545
     15 H           3.3671    6.7050    8.0512 H       1  UNL1        0.0239
     16 H           2.3220    8.1233    8.0305 H       1  UNL1        0.0239
     17 H           3.9522    8.2385    8.7038 H       1  UNL1        0.0239
     18 C           2.7323   10.5157    6.4377 C.3     1  UNL1       -0.0574
     19 H           1.8180   10.1298    6.8892 H       1  UNL1        0.0236
     20 H           2.4505   11.2281    5.6638 H       1  UNL1        0.0236
     21 H           3.2997   11.0483    7.2062 H       1  UNL1        0.0236
     22 C           4.7510   10.8027    3.9916 C.3     1  UNL1       -0.0545
     23 H           5.4243   11.4762    4.5287 H       1  UNL1        0.0239
     24 H           3.8114   11.3245    3.8191 H       1  UNL1        0.0239
     25 H           5.1953   10.5824    3.0224 H       1  UNL1        0.0239
@<TRIPOS>BOND
     1    25    22    1
     2     8     6    1
     3     9     6    1
     4    24    22    1
     5    22    23    1
     6    22     5    1
     7     6     7    1
     8     6     1    1
     9     5     1    1
    10     5     4    1
    11     1     2    2
    12    11    10    1
    13    20    18    1
    14     4    18    1
    15     4     3    1
    16     2    10    1
    17     2     3    1
    18    10    13    1
    19    10    12    1
    20    18    19    1
    21    18    21    1
    22     3    14    1
    23    14    16    1
    24    14    15    1
    25    14    17    1
