@<TRIPOS>MOLECULE
5,6,7,8
 64 64 0 0 0
SMALL
GASTEIGER

@<TRIPOS>ATOM
      1 SI         -5.0524    0.8738    7.4516 Si      1  UNL1        0.0000
      2 SI         -1.9841    2.4470    0.6096 Si      1  UNL1        0.0000
      3 SI          4.7680    2.1240    3.5523 Si      1  UNL1        0.0000
      4 SI          1.5011    0.4673   10.4823 Si      1  UNL1        0.0000
      5 C          -1.0680    0.0984    5.6001 C.3     1  UNL1        0.0000
      6 C          -0.4604    0.4625    4.3041 C.3     1  UNL1        0.0000
      7 C           0.8561    0.4738    4.9270 C.2     1  UNL1        0.0000
      8 C           0.2762    0.1130    6.2075 C.2     1  UNL1        0.0000
      9 C          -2.3310    0.3202    6.1514 C.1     1  UNL1        0.0000
     10 C          -3.4102    0.5491    6.6536 C.1     1  UNL1        0.0000
     11 C          -0.9553    1.0497    3.1396 C.1     1  UNL1        0.0000
     12 C          -1.3719    1.6090    2.1479 C.1     1  UNL1        0.0000
     13 C           2.0999    0.9517    4.5152 C.1     1  UNL1        0.0000
     14 C           3.1545    1.4268    4.1522 C.1     1  UNL1        0.0000
     15 C           0.7076    0.1993    7.5309 C.1     1  UNL1        0.0000
     16 C           1.0410    0.3222    8.6900 C.1     1  UNL1        0.0000
     17 C          -4.8560    0.5670    9.3228 C.3     1  UNL1        0.0000
     18 C          -6.3338   -0.3189    6.6970 C.3     1  UNL1        0.0000
     19 C          -5.5416    2.6850    7.1110 C.3     1  UNL1        0.0000
     20 C          -0.4737    2.7804   -0.5047 C.3     1  UNL1        0.0000
     21 C          -2.8283    4.0803    1.1136 C.3     1  UNL1        0.0000
     22 C          -3.2246    1.2840   -0.2510 C.3     1  UNL1        0.0000
     23 C           5.3665    3.4146    4.8207 C.3     1  UNL1        0.0000
     24 C           4.4480    2.9291    1.8547 C.3     1  UNL1        0.0000
     25 C           6.0104    0.6864    3.4065 C.3     1  UNL1        0.0000
     26 C          -0.1061    0.7669   11.4620 C.3     1  UNL1        0.0000
     27 C           2.3309   -1.1641   11.0143 C.3     1  UNL1        0.0000
     28 C           2.7039    1.9329   10.6783 C.3     1  UNL1        0.0000
     29 H          -5.7832    0.7529    9.8575 H       1  UNL1        0.0000
     30 H          -4.5608   -0.4588    9.5218 H       1  UNL1        0.0000
     31 H          -4.0944    1.2139    9.7478 H       1  UNL1        0.0000
     32 H          -7.3193   -0.1701    7.1295 H       1  UNL1        0.0000
     33 H          -6.4196   -0.1741    5.6243 H       1  UNL1        0.0000
     34 H          -6.0529   -1.3541    6.8657 H       1  UNL1        0.0000
     35 H          -6.5072    2.9253    7.5470 H       1  UNL1        0.0000
     36 H          -4.8119    3.3735    7.5267 H       1  UNL1        0.0000
     37 H          -5.6042    2.8796    6.0446 H       1  UNL1        0.0000
     38 H          -0.7585    3.2926   -1.4193 H       1  UNL1        0.0000
     39 H           0.2601    3.3980    0.0046 H       1  UNL1        0.0000
     40 H           0.0180    1.8539   -0.7855 H       1  UNL1        0.0000
     41 H          -3.2082    4.6154    0.2478 H       1  UNL1        0.0000
     42 H          -3.6647    3.8987    1.7817 H       1  UNL1        0.0000
     43 H          -2.1349    4.7380    1.6291 H       1  UNL1        0.0000
     44 H          -3.6105    1.7219   -1.1673 H       1  UNL1        0.0000
     45 H          -2.7608    0.3366   -0.5085 H       1  UNL1        0.0000
     46 H          -4.0716    1.0687    0.3935 H       1  UNL1        0.0000
     47 H           6.3223    3.8420    4.5309 H       1  UNL1        0.0000
     48 H           4.6563    4.2304    4.9164 H       1  UNL1        0.0000
     49 H           5.4890    2.9705    5.8041 H       1  UNL1        0.0000
     50 H           5.3545    3.3628    1.4421 H       1  UNL1        0.0000
     51 H           4.0759    2.2012    1.1401 H       1  UNL1        0.0000
     52 H           3.7083    3.7207    1.9295 H       1  UNL1        0.0000
     53 H           6.9726    1.0289    3.0364 H       1  UNL1        0.0000
     54 H           6.1774    0.2126    4.3692 H       1  UNL1        0.0000
     55 H           5.6480   -0.0772    2.7249 H       1  UNL1        0.0000
     56 H           0.0850    0.8446   12.5286 H       1  UNL1        0.0000
     57 H          -0.5921    1.6851   11.1461 H       1  UNL1        0.0000
     58 H          -0.8119   -0.0443   11.3114 H       1  UNL1        0.0000
     59 H           2.5925   -1.1518   12.0686 H       1  UNL1        0.0000
     60 H           1.6715   -2.0106   10.8484 H       1  UNL1        0.0000
     61 H           3.2417   -1.3437   10.4511 H       1  UNL1        0.0000
     62 H           3.0060    2.0624   11.7137 H       1  UNL1        0.0000
     63 H           3.6037    1.7837   10.0891 H       1  UNL1        0.0000
     64 H           2.2481    2.8621   10.3496 H       1  UNL1        0.0000
@<TRIPOS>BOND
     1    38    20    1
     2    44    22    1
     3    40    20    1
     4    45    22    1
     5    20    39    1
     6    20     2    1
     7    22    46    1
     8    22     2    1
     9    41    21    1
    10     2    21    1
    11     2    12    1
    12    21    43    1
    13    21    42    1
    14    51    24    1
    15    50    24    1
    16    24    52    1
    17    24     3    1
    18    12    11    3
    19    55    25    1
    20    53    25    1
    21    11     6    1
    22    25     3    1
    23    25    54    1
    24     3    14    1
    25     3    23    1
    26    14    13    3
    27     6     7    1
    28     6     5    1
    29    13     7    1
    30    47    23    1
    31    23    48    1
    32    23    49    1
    33     7     8    2
    34     5     9    1
    35     5     8    1
    36    33    18    1
    37    37    19    1
    38     9    10    3
    39     8    15    1
    40    10     1    1
    41    18    34    1
    42    18    32    1
    43    18     1    1
    44    19     1    1
    45    19    36    1
    46    19    35    1
    47     1    17    1
    48    15    16    3
    49    16     4    1
    50    17    30    1
    51    17    31    1
    52    17    29    1
    53    63    28    1
    54    64    28    1
    55    61    27    1
    56     4    28    1
    57     4    27    1
    58     4    26    1
    59    28    62    1
    60    60    27    1
    61    27    59    1
    62    57    26    1
    63    58    26    1
    64    26    56    1
