@<TRIPOS>MOLECULE
5,6,8,9
 60 59 0 0 0
SMALL
GASTEIGER

@<TRIPOS>ATOM
      1 SI          0.2196    1.0589    4.3930 Si      1  UNL1        0.0000
      2 SI          5.4880    1.0541   -2.6137 Si      1  UNL1        0.0000
      3 SI          6.2425   -3.9721   -3.1278 Si      1  UNL1        0.0000
      4 SI          3.2072   -2.8876    0.9199 Si      1  UNL1        0.0000
      5 C           4.4293    0.5740   -1.1433 C.2     1  UNL1        0.0000
      6 C           4.2587   -0.7289   -0.7668 C.2     1  UNL1        0.0000
      7 C           3.4209   -1.0731    0.4007 C.2     1  UNL1        0.0000
      8 C           2.8533   -0.0218    1.0409 C.2     1  UNL1        0.0000
      9 C           2.0164    0.0723    2.1263 C.1     1  UNL1        0.0000
     10 C           1.2738    0.3555    3.0614 C.1     1  UNL1        0.0000
     11 C           4.8714   -1.7869   -1.4798 C.1     1  UNL1        0.0000
     12 C           5.4309   -2.6407   -2.1337 C.1     1  UNL1        0.0000
     13 C           2.0731   -3.0173    2.4493 C.3     1  UNL1        0.0000
     14 C           7.3534    0.7013   -2.3362 C.3     1  UNL1        0.0000
     15 C           2.4136   -3.8920   -0.5011 C.3     1  UNL1        0.0000
     16 C           0.5956    0.2010    6.0535 C.3     1  UNL1        0.0000
     17 C           4.9140   -3.6224    1.3727 C.3     1  UNL1        0.0000
     18 C          -1.6173    0.8238    3.9320 C.3     1  UNL1        0.0000
     19 C           5.0001    0.2822   -4.2993 C.3     1  UNL1        0.0000
     20 C           0.6116    2.9283    4.5327 C.3     1  UNL1        0.0000
     21 C           7.7104   -3.2130   -4.0816 C.3     1  UNL1        0.0000
     22 C           4.9599   -4.6821   -4.3489 C.3     1  UNL1        0.0000
     23 C           5.2510    2.9620   -2.7859 C.3     1  UNL1        0.0000
     24 C           6.8483   -5.3393   -1.9440 C.3     1  UNL1        0.0000
     25 H           2.4778   -2.4740    3.2965 H       1  UNL1        0.0000
     26 H           1.0850   -2.6155    2.2518 H       1  UNL1        0.0000
     27 H           1.9558   -4.0550    2.7464 H       1  UNL1        0.0000
     28 H           7.5265   -0.3691   -2.3099 H       1  UNL1        0.0000
     29 H           7.9627    1.1187   -3.1316 H       1  UNL1        0.0000
     30 H           7.7065    1.1133   -1.3953 H       1  UNL1        0.0000
     31 H           1.4265   -3.5148   -0.7517 H       1  UNL1        0.0000
     32 H           3.0224   -3.8526   -1.3981 H       1  UNL1        0.0000
     33 H           2.3037   -4.9344   -0.2182 H       1  UNL1        0.0000
     34 H          -0.0167    0.6014    6.8566 H       1  UNL1        0.0000
     35 H           0.4028   -0.8656    5.9929 H       1  UNL1        0.0000
     36 H           1.6357    0.3296    6.3377 H       1  UNL1        0.0000
     37 H           4.8180   -4.6606    1.6755 H       1  UNL1        0.0000
     38 H           5.5943   -3.5839    0.5288 H       1  UNL1        0.0000
     39 H           5.3728   -3.0825    2.1960 H       1  UNL1        0.0000
     40 H          -2.2735    1.2386    4.6920 H       1  UNL1        0.0000
     41 H          -1.8583    1.3083    2.9903 H       1  UNL1        0.0000
     42 H          -1.8596   -0.2292    3.8278 H       1  UNL1        0.0000
     43 H           3.9552    0.4620   -4.5336 H       1  UNL1        0.0000
     44 H           5.5952    0.6912   -5.1099 H       1  UNL1        0.0000
     45 H           5.1506   -0.7915   -4.2791 H       1  UNL1        0.0000
     46 H           1.6495    3.0879    4.8115 H       1  UNL1        0.0000
     47 H           0.4425    3.4381    3.5875 H       1  UNL1        0.0000
     48 H          -0.0066    3.4154    5.2815 H       1  UNL1        0.0000
     49 H           8.4635   -2.8274   -3.4008 H       1  UNL1        0.0000
     50 H           8.1923   -3.9460   -4.7225 H       1  UNL1        0.0000
     51 H           7.3862   -2.3886   -4.7097 H       1  UNL1        0.0000
     52 H           4.5738   -3.9089   -5.0065 H       1  UNL1        0.0000
     53 H           5.3898   -5.4605   -4.9731 H       1  UNL1        0.0000
     54 H           4.1148   -5.1138   -3.8210 H       1  UNL1        0.0000
     55 H           4.9984    3.4270   -1.8285 H       1  UNL1        0.0000
     56 H           6.1544    3.4368   -3.1556 H       1  UNL1        0.0000
     57 H           4.4602    3.1959   -3.4930 H       1  UNL1        0.0000
     58 H           6.0246   -5.7459   -1.3649 H       1  UNL1        0.0000
     59 H           7.3094   -6.1612   -2.4846 H       1  UNL1        0.0000
     60 H           7.5829   -4.9547   -1.2426 H       1  UNL1        0.0000
@<TRIPOS>BOND
     1    44    19    1
     2    52    22    1
     3    53    22    1
     4    50    21    1
     5    51    21    1
     6    43    19    1
     7    22    54    1
     8    22     3    1
     9    19    45    1
    10    19     2    1
    11    21    49    1
    12    21     3    1
    13    57    23    1
    14    56    23    1
    15    29    14    1
    16     3    12    1
    17     3    24    1
    18    23     2    1
    19    23    55    1
    20     2    14    1
    21     2     5    1
    22    59    24    1
    23    14    28    1
    24    14    30    1
    25    12    11    3
    26    24    58    1
    27    24    60    1
    28    11     6    1
    29    32    15    1
    30     5     6    2
    31     6     7    1
    32    31    15    1
    33    15    33    1
    34    15     4    1
    35     7     4    1
    36     7     8    2
    37    38    17    1
    38     4    17    1
    39     4    13    1
    40     8     9    1
    41    17    37    1
    42    17    39    1
    43     9    10    3
    44    26    13    1
    45    13    27    1
    46    13    25    1
    47    41    18    1
    48    10     1    1
    49    47    20    1
    50    42    18    1
    51    18     1    1
    52    18    40    1
    53     1    20    1
    54     1    16    1
    55    20    46    1
    56    20    48    1
    57    35    16    1
    58    16    36    1
    59    16    34    1
