@<TRIPOS>MOLECULE
5,10,11
 38 41 0 0 0
SMALL
GASTEIGER

@<TRIPOS>ATOM
      1 N          11.0384   10.2581   -1.4859 N.pl3   1  UNL1       -0.3107
      2 N          13.0039   11.0489   -1.1986 N.pl3   1  UNL1       -0.3073
      3 C          11.5595   12.1059    1.4638 C.ar    1  UNL1       -0.0171
      4 C          12.1184   10.9767    3.4136 C.3     1  UNL1        0.0568
      5 C          13.3294   11.3680    2.7159 C.2     1  UNL1       -0.0278
      6 C          12.5266   11.5974   -2.3551 C.2     1  UNL1        0.0078
      7 H          13.0968   12.2815   -2.9497 H       1  UNL1        0.0793
      8 C          12.2006   10.4256    4.6990 C.2     1  UNL1       -0.0678
      9 H          11.2996   10.1891    5.2489 H       1  UNL1        0.0585
     10 C          12.0927   10.2191   -0.6355 C.3     1  UNL1        0.1863
     11 C          11.0098   11.4274    2.6158 C.ar    1  UNL1       -0.0242
     12 C          13.4363   10.2338    5.2752 C.2     1  UNL1       -0.0645
     13 H          13.5084    9.8195    6.2701 H       1  UNL1        0.0615
     14 C          12.9755   12.0484    1.5219 C.2     1  UNL1       -0.0341
     15 C          14.5748   11.1592    3.3482 C.2     1  UNL1       -0.0571
     16 H          15.4904   11.4777    2.8656 H       1  UNL1        0.0621
     17 C           9.7801    9.5927   -1.2789 C.3     1  UNL1        0.0024
     18 H           9.9419    8.6575   -0.7414 H       1  UNL1        0.0428
     19 H           9.3130    9.3827   -2.2409 H       1  UNL1        0.0428
     20 H           9.1121   10.2269   -0.6885 H       1  UNL1        0.0428
     21 C           8.7967   12.0048    1.9026 C.ar    1  UNL1       -0.0614
     22 H           7.7263   11.9893    2.0484 H       1  UNL1        0.0618
     23 C          11.2828   11.0952   -2.5392 C.2     1  UNL1        0.0075
     24 H          10.5711   11.2635   -3.3209 H       1  UNL1        0.0793
     25 C          14.2285   11.4546   -0.5598 C.3     1  UNL1        0.0179
     26 H          14.9207   11.8220   -1.3223 H       1  UNL1        0.0467
     27 H          14.6645   10.5847   -0.0517 H       1  UNL1        0.0467
     28 C          13.9254   12.5574    0.4856 C.3     1  UNL1       -0.0110
     29 H          14.8683   12.8617    0.9440 H       1  UNL1        0.0329
     30 H          13.4994   13.4242   -0.0269 H       1  UNL1        0.0329
     31 C          10.6776   12.7362    0.5648 C.ar    1  UNL1       -0.0540
     32 H          11.0632   13.2826   -0.2873 H       1  UNL1        0.0624
     33 C           9.3247   12.6721    0.7874 C.ar    1  UNL1       -0.0612
     34 H           8.6461   13.1597    0.1000 H       1  UNL1        0.0618
     35 C           9.6266   11.3980    2.8186 C.ar    1  UNL1       -0.0568
     36 H           9.2150   10.9175    3.6962 H       1  UNL1        0.0621
     37 C          14.6112   10.5975    4.5996 C.2     1  UNL1       -0.0617
     38 H          15.5620   10.4485    5.0916 H       1  UNL1        0.0618
@<TRIPOS>BOND
     1    24    23    1
     2     7     6    1
     3    23     6    2
     4    23     1    1
     5     6     2    1
     6    19    17    1
     7     1    17    1
     8     1    10    1
     9    26    25    1
    10    17    18    1
    11    17    20    1
    12     2    10    1
    13     2    25    1
    14    25    27    1
    15    25    28    1
    16    32    31    1
    17    30    28    1
    18    34    33    1
    19    28    29    1
    20    28    14    1
    21    31    33   ar
    22    31     3   ar
    23    33    21   ar
    24     3    14    1
    25     3    11   ar
    26    14     5    2
    27    21    22    1
    28    21    35   ar
    29    11    35   ar
    30    11     4    1
    31     5    15    1
    32     5     4    1
    33    35    36    1
    34    16    15    1
    35    15    37    2
    36     4     8    1
    37    37    38    1
    38    37    12    1
    39     8     9    1
    40     8    12    2
    41    12    13    1
