@<TRIPOS>MOLECULE
2,3,7,22
 32 32 0 0 0
SMALL
GASTEIGER

@<TRIPOS>ATOM
      1 SI          5.0623   12.4608   10.3756 Si      1  UNL1        0.0000
      2 C           3.5942   11.5779   11.2166 C.2     1  UNL1        0.0000
      3 C           3.8286   10.8176   12.4476 C.3     1  UNL1        0.0000
      4 C           2.5711   10.4896   12.9999 C.2     1  UNL1        0.0000
      5 C           1.5772   11.0224   12.1659 C.2     1  UNL1        0.0000
      6 C           2.1901   11.6640   11.0754 C.2     1  UNL1        0.0000
      7 C           5.1412   10.2608   12.7339 C.3     1  UNL1        0.0000
      8 H           5.1836    9.6009   13.6022 H       1  UNL1        0.0000
      9 H           5.9816   10.9613   12.7273 H       1  UNL1        0.0000
     10 C           2.3312    9.8116   14.3140 C.3     1  UNL1        0.0000
     11 H           3.2704    9.4937   14.7632 H       1  UNL1        0.0000
     12 H           1.6852    8.9389   14.2039 H       1  UNL1        0.0000
     13 H           1.8413   10.4965   15.0090 H       1  UNL1        0.0000
     14 C           0.0999   10.9448   12.3944 C.3     1  UNL1        0.0000
     15 H          -0.1437   10.1698   13.1181 H       1  UNL1        0.0000
     16 H          -0.4305   10.7323   11.4655 H       1  UNL1        0.0000
     17 H          -0.2785   11.8949   12.7771 H       1  UNL1        0.0000
     18 C           1.4402   12.3861   10.0009 C.3     1  UNL1        0.0000
     19 H           2.1179   12.7810    9.2508 H       1  UNL1        0.0000
     20 H           0.8760   13.2169   10.4295 H       1  UNL1        0.0000
     21 H           0.7237   11.7264    9.5088 H       1  UNL1        0.0000
     22 C           6.0339   10.8914    9.9011 C.3     1  UNL1        0.0000
     23 H           7.0216   10.8194   10.3728 H       1  UNL1        0.0000
     24 H           6.1573   10.7706    8.8208 H       1  UNL1        0.0000
     25 C           5.9219   13.6560   11.6131 C.3     1  UNL1        0.0000
     26 H           6.9116   13.9331   11.2625 H       1  UNL1        0.0000
     27 H           6.0291   13.2160   12.5989 H       1  UNL1        0.0000
     28 H           5.3463   14.5694   11.7260 H       1  UNL1        0.0000
     29 C           4.6449   13.5671    8.8656 C.3     1  UNL1        0.0000
     30 H           5.5526   14.0455    8.5138 H       1  UNL1        0.0000
     31 H           3.9462   14.3526    9.1305 H       1  UNL1        0.0000
     32 H           4.2287   13.0091    8.0343 H       1  UNL1        0.0000
@<TRIPOS>BOND
     1    32    29    1
     2    30    29    1
     3    24    22    1
     4    29    31    1
     5    29     1    1
     6    19    18    1
     7    21    18    1
     8    22    23    1
     9    22     1    1
    10    18    20    1
    11    18     6    1
    12     1     2    1
    13     1    25    1
    14     6     2    2
    15     6     5    1
    16     2     3    1
    17    26    25    1
    18    16    14    1
    19    25    28    1
    20    25    27    1
    21     5    14    1
    22     5     4    2
    23    14    17    1
    24    14    15    1
    25     3     7    1
    26     3     4    1
    27     9     7    1
    28     7     8    1
    29     4    10    1
    30    12    10    1
    31    10    11    1
    32    10    13    1
