@<TRIPOS>MOLECULE
2,4,5,7
 18 18 0 0 0
SMALL
GASTEIGER

@<TRIPOS>ATOM
      1 C          11.5937    4.2389   -6.0136 C.2     1  UNL1       -0.0680
      2 C          12.3593    3.1377   -5.4437 C.3     1  UNL1        0.0108
      3 H          12.5857    2.3032   -6.1020 H       1  UNL1        0.0399
      4 C          13.3096    3.4553   -4.4122 C.2     1  UNL1       -0.0680
      5 C          13.1140    4.6064   -3.6652 C.2     1  UNL1       -0.0767
      6 H          13.8116    4.8658   -2.8702 H       1  UNL1        0.0578
      7 C          12.0015    5.4683   -3.9430 C.3     1  UNL1        0.0054
      8 H          11.9533    6.4308   -3.4448 H       1  UNL1        0.0394
      9 C          11.4259    5.3693   -5.2706 C.2     1  UNL1       -0.0767
     10 H          10.8581    6.2095   -5.6589 H       1  UNL1        0.0578
     11 C          11.0200    4.0795   -7.3899 C.3     1  UNL1       -0.0432
     12 H          10.3436    3.2257   -7.4187 H       1  UNL1        0.0275
     13 H          11.8179    3.9053   -8.1140 H       1  UNL1        0.0275
     14 H          10.4641    4.9669   -7.6866 H       1  UNL1        0.0275
     15 C          14.4813    2.5467   -4.1672 C.3     1  UNL1       -0.0432
     16 H          15.2700    2.7608   -4.8921 H       1  UNL1        0.0275
     17 H          14.1960    1.5015   -4.2828 H       1  UNL1        0.0275
     18 H          14.8892    2.6888   -3.1676 H       1  UNL1        0.0275
@<TRIPOS>BOND
     1    13    11    1
     2    14    11    1
     3    12    11    1
     4    11     1    1
     5     3     2    1
     6     1     2    1
     7     1     9    2
     8    10     9    1
     9     2     4    1
    10     9     7    1
    11    16    15    1
    12     4    15    1
    13     4     5    2
    14    17    15    1
    15    15    18    1
    16     7     5    1
    17     7     8    1
    18     5     6    1
