@<TRIPOS>MOLECULE
1,2,4,9
 18 18 0 0 0
SMALL
GASTEIGER

@<TRIPOS>ATOM
      1 C           2.7088    0.7337    2.8353 C.2     1  UNL1       -0.0683
      2 C           2.3056    0.9528    4.1443 C.2     1  UNL1       -0.0765
      3 H           1.2560    1.1366    4.3685 H       1  UNL1        0.0578
      4 C           3.2603    0.9284    5.2154 C.3     1  UNL1        0.0081
      5 H           2.8901    0.9605    6.2353 H       1  UNL1        0.0397
      6 C           4.5011    0.2079    4.9798 C.2     1  UNL1       -0.0683
      7 C           4.9020    0.0153    3.6912 C.2     1  UNL1       -0.0765
      8 H           5.8260   -0.5122    3.4727 H       1  UNL1        0.0578
      9 C           4.1034    0.5072    2.5843 C.3     1  UNL1        0.0081
     10 H           4.4052    0.2155    1.5833 H       1  UNL1        0.0397
     11 C           1.7334    0.7459    1.6930 C.3     1  UNL1       -0.0432
     12 H           1.5522   -0.2751    1.3501 H       1  UNL1        0.0275
     13 H           2.1312    1.3163    0.8543 H       1  UNL1        0.0275
     14 H           0.7809    1.1811    1.9912 H       1  UNL1        0.0275
     15 C           5.3012   -0.2704    6.1547 C.3     1  UNL1       -0.0432
     16 H           6.1504   -0.8691    5.8303 H       1  UNL1        0.0275
     17 H           4.6799   -0.8716    6.8200 H       1  UNL1        0.0275
     18 H           5.6805    0.5809    6.7207 H       1  UNL1        0.0275
@<TRIPOS>BOND
     1    13    11    1
     2    12    11    1
     3    10     9    1
     4    11    14    1
     5    11     1    1
     6     9     1    1
     7     9     7    1
     8     1     2    2
     9     8     7    1
    10     7     6    2
    11     2     3    1
    12     2     4    1
    13     6     4    1
    14     6    15    1
    15     4     5    1
    16    16    15    1
    17    15    18    1
    18    15    17    1
