@<TRIPOS>MOLECULE
1,2,3,4
 25 25 0 0 0
SMALL
GASTEIGER

@<TRIPOS>ATOM
      1 C           6.4576    8.2881    6.9610 C.2     1  UNL1       -0.0584
      2 C           6.0300    9.6116    7.2644 C.2     1  UNL1       -0.0477
      3 C           4.7919    9.5095    7.9604 C.2     1  UNL1       -0.0477
      4 C           4.4796    8.1249    8.1126 C.2     1  UNL1       -0.0584
      5 C           5.4914    7.3764    7.4666 C.3     1  UNL1        0.0231
      6 C           7.8127    7.8684    6.4686 C.3     1  UNL1       -0.0424
      7 C           6.8696   10.8536    7.1536 C.3     1  UNL1       -0.0395
      8 C           3.9972   10.6269    8.5750 C.3     1  UNL1       -0.0395
      9 C           3.3331    7.6191    8.9357 C.3     1  UNL1       -0.0424
     10 C           5.6690    5.8852    7.4530 C.3     1  UNL1       -0.0510
     11 H           7.7358    7.1049    5.6940 H       1  UNL1        0.0275
     12 H           8.3851    7.4428    7.2976 H       1  UNL1        0.0275
     13 H           8.3739    8.7106    6.0725 H       1  UNL1        0.0275
     14 H           6.2503   11.7479    7.1446 H       1  UNL1        0.0278
     15 H           7.5416   10.9191    8.0142 H       1  UNL1        0.0278
     16 H           7.4818   10.8503    6.2534 H       1  UNL1        0.0278
     17 H           2.9292   10.4584    8.4249 H       1  UNL1        0.0278
     18 H           4.1858   10.6825    9.6508 H       1  UNL1        0.0278
     19 H           4.2599   11.5870    8.1324 H       1  UNL1        0.0278
     20 H           3.3523    6.5347    9.0161 H       1  UNL1        0.0275
     21 H           3.3848    8.0415    9.9413 H       1  UNL1        0.0275
     22 H           2.3823    7.9172    8.4895 H       1  UNL1        0.0275
     23 H           4.8635    5.3922    7.9910 H       1  UNL1        0.0242
     24 H           6.6144    5.6166    7.9309 H       1  UNL1        0.0242
     25 H           5.6827    5.5016    6.4308 H       1  UNL1        0.0242
@<TRIPOS>BOND
     1    11     6    1
     2    13     6    1
     3    16     7    1
     4    25    10    1
     5     6     1    1
     6     6    12    1
     7     1     2    2
     8     1     5    1
     9    14     7    1
    10     7     2    1
    11     7    15    1
    12     2     3    1
    13    10     5    1
    14    10    24    1
    15    10    23    1
    16     5     4    1
    17     3     4    2
    18     3     8    1
    19     4     9    1
    20    19     8    1
    21    17     8    1
    22    22     9    1
    23     8    18    1
    24     9    20    1
    25     9    21    1
