@<TRIPOS>MOLECULE
3,4,17,18
 44 45 0 0 0
SMALL
GASTEIGER

@<TRIPOS>ATOM
      1 C          -0.0091    1.5385    3.8239 C.2     1  UNL1        0.0000
      2 O          -0.7629    1.6657    4.7909 O.2     1  UNL1        0.0000
      3 C           0.2221    2.5074    2.7377 C.3     1  UNL1        0.0000
      4 C           0.9742    1.8444    1.7283 C.3     1  UNL1        0.0000
      5 C           1.1542    2.2548    0.2945 C.3     1  UNL1        0.0000
      6 H           0.2015    2.6208   -0.0943 H       1  UNL1        0.0000
      7 H           1.8672    3.0787    0.2265 H       1  UNL1        0.0000
      8 C           1.6462    1.0791   -0.5525 C.3     1  UNL1        0.0000
      9 H           0.8140    0.4005   -0.7560 H       1  UNL1        0.0000
     10 H           2.0167    1.4485   -1.5108 H       1  UNL1        0.0000
     11 C           2.7418    0.3079    0.1789 C.3     1  UNL1        0.0000
     12 H           3.5140    1.0061    0.5127 H       1  UNL1        0.0000
     13 H           3.2010   -0.4223   -0.4912 H       1  UNL1        0.0000
     14 C           2.1489   -0.3986    1.3963 C.3     1  UNL1        0.0000
     15 H           1.4447   -1.1707    1.0674 H       1  UNL1        0.0000
     16 H           2.9308   -0.8921    1.9744 H       1  UNL1        0.0000
     17 C           1.4136    0.5935    2.2410 C.2     1  UNL1        0.0000
     18 C           0.9459    0.4448    3.5735 C.2     1  UNL1        0.0000
     19 SI          0.9558   -1.0591    4.6905 Si      1  UNL1        0.0000
     20 C           1.0418   -0.5013    6.5125 C.3     1  UNL1        0.0000
     21 H           1.9449    0.0711    6.7056 H       1  UNL1        0.0000
     22 H           1.0232   -1.3445    7.1970 H       1  UNL1        0.0000
     23 H           0.1920    0.1328    6.7359 H       1  UNL1        0.0000
     24 C           2.4623   -2.2003    4.3873 C.3     1  UNL1        0.0000
     25 H           3.3892   -1.6364    4.3672 H       1  UNL1        0.0000
     26 H           2.3790   -2.7441    3.4528 H       1  UNL1        0.0000
     27 H           2.5412   -2.9341    5.1828 H       1  UNL1        0.0000
     28 C          -0.6470   -2.0547    4.3852 C.3     1  UNL1        0.0000
     29 H          -1.5145   -1.4222    4.5449 H       1  UNL1        0.0000
     30 H          -0.7237   -2.9028    5.0592 H       1  UNL1        0.0000
     31 H          -0.6989   -2.4347    3.3686 H       1  UNL1        0.0000
     32 SI         -0.8098    4.0730    2.6313 Si      1  UNL1        0.0000
     33 C          -0.1732    5.2793    1.2944 C.3     1  UNL1        0.0000
     34 H          -0.6330    6.2541    1.4195 H       1  UNL1        0.0000
     35 H          -0.4015    4.9407    0.2898 H       1  UNL1        0.0000
     36 H           0.9006    5.4133    1.3630 H       1  UNL1        0.0000
     37 C          -0.7292    4.9750    4.3098 C.3     1  UNL1        0.0000
     38 H          -1.2985    5.8996    4.3026 H       1  UNL1        0.0000
     39 H           0.2985    5.2117    4.5702 H       1  UNL1        0.0000
     40 H          -1.1324    4.3366    5.0873 H       1  UNL1        0.0000
     41 C          -2.6139    3.5723    2.2413 C.3     1  UNL1        0.0000
     42 H          -3.2734    4.4351    2.2382 H       1  UNL1        0.0000
     43 H          -2.9768    2.8769    2.9915 H       1  UNL1        0.0000
     44 H          -2.6998    3.0872    1.2730 H       1  UNL1        0.0000
@<TRIPOS>BOND
     1    10     8    1
     2     9     8    1
     3     8    11    1
     4     8     5    1
     5    13    11    1
     6     6     5    1
     7    11    12    1
     8    11    14    1
     9     7     5    1
    10    35    33    1
    11     5     4    1
    12    15    14    1
    13    44    41    1
    14    33    36    1
    15    33    34    1
    16    33    32    1
    17    14    16    1
    18    14    17    1
    19     4    17    1
    20     4     3    1
    21    42    41    1
    22    17    18    2
    23    41    32    1
    24    41    43    1
    25    32     3    1
    26    32    37    1
    27     3     1    1
    28    31    28    1
    29    26    24    1
    30    18     1    1
    31    18    19    1
    32     1     2    2
    33    38    37    1
    34    37    39    1
    35    37    40    1
    36    25    24    1
    37    28    29    1
    38    28    19    1
    39    28    30    1
    40    24    19    1
    41    24    27    1
    42    19    20    1
    43    20    21    1
    44    20    23    1
    45    20    22    1
