@<TRIPOS>MOLECULE
1,3,11,13
 20 20 0 0 0
SMALL
GASTEIGER

@<TRIPOS>ATOM
      1 C          10.4710    2.1521   13.9332 C.3     1  UNL1       -0.0348
      2 H          11.2329    2.5336   13.2448 H       1  UNL1        0.0306
      3 C          10.8854    1.8020   15.2196 C.3     1  UNL1       -0.0348
      4 H          11.9344    1.9695   15.4605 H       1  UNL1        0.0306
      5 C          10.2411    0.6563   15.9799 C.3     1  UNL1       -0.0494
      6 H          10.9965    0.1651   16.5963 H       1  UNL1        0.0268
      7 H           9.8863   -0.0881   15.2643 H       1  UNL1        0.0268
      8 C           9.0911    1.1288   16.8850 C.3     1  UNL1       -0.0494
      9 H           8.3411    0.3363   16.9969 H       1  UNL1        0.0268
     10 H           9.4917    1.3450   17.8772 H       1  UNL1        0.0268
     11 C           8.4230    2.3920   16.3811 C.3     1  UNL1       -0.0348
     12 H           7.8931    2.9318   17.1734 H       1  UNL1        0.0306
     13 C           7.9619    2.5561   15.0736 C.3     1  UNL1       -0.0348
     14 H           7.1283    3.2422   14.9297 H       1  UNL1        0.0306
     15 C           8.0325    1.4314   14.0558 C.3     1  UNL1       -0.0494
     16 H           7.1698    1.4963   13.3898 H       1  UNL1        0.0268
     17 H           7.9552    0.4759   14.5785 H       1  UNL1        0.0268
     18 C           9.3172    1.4852   13.2119 C.3     1  UNL1       -0.0494
     19 H           9.6134    0.4759   12.9008 H       1  UNL1        0.0268
     20 H           9.1193    2.0632   12.3074 H       1  UNL1        0.0268
@<TRIPOS>BOND
     1    20    18    1
     2    19    18    1
     3    18     1    1
     4    18    15    1
     5     2     1    1
     6    16    15    1
     7     1     3    1
     8    15    17    1
     9    15    13    1
    10    14    13    1
    11    13    11    1
    12     3     4    1
    13     3     5    1
    14     7     5    1
    15     5     6    1
    16     5     8    1
    17    11     8    1
    18    11    12    1
    19     8     9    1
    20     8    10    1
