@<TRIPOS>MOLECULE
1,3,11,13
 20 20 0 0 0
SMALL
GASTEIGER

@<TRIPOS>ATOM
      1 C          -8.2688    3.3832   -1.3500 C.3     1  UNL1       -0.0348
      2 H          -8.9328    2.5227   -1.4224 H       1  UNL1        0.0306
      3 C          -7.0451    3.1844   -0.6850 C.3     1  UNL1       -0.0348
      4 H          -6.8785    2.1942   -0.2748 H       1  UNL1        0.0306
      5 C          -5.7690    3.9028   -1.0810 C.3     1  UNL1       -0.0494
      6 H          -4.9202    3.2480   -0.8745 H       1  UNL1        0.0268
      7 H          -5.7840    4.0809   -2.1577 H       1  UNL1        0.0268
      8 C          -5.5701    5.2305   -0.3238 C.3     1  UNL1       -0.0494
      9 H          -4.9340    5.0553    0.5455 H       1  UNL1        0.0268
     10 H          -5.0470    5.9520   -0.9612 H       1  UNL1        0.0268
     11 C          -6.8681    5.8405    0.1527 C.3     1  UNL1       -0.0348
     12 H          -6.7684    6.4465    1.0507 H       1  UNL1        0.0306
     13 C          -7.9568    6.0724   -0.6689 C.3     1  UNL1       -0.0348
     14 H          -8.6743    6.8259   -0.3520 H       1  UNL1        0.0306
     15 C          -7.9490    5.7808   -2.1529 C.3     1  UNL1       -0.0494
     16 H          -8.5748    6.5147   -2.6640 H       1  UNL1        0.0268
     17 H          -6.9330    5.9045   -2.5318 H       1  UNL1        0.0268
     18 C          -8.4694    4.3676   -2.4795 C.3     1  UNL1       -0.0494
     19 H          -9.5393    4.4173   -2.6901 H       1  UNL1        0.0268
     20 H          -7.9806    3.9882   -3.3838 H       1  UNL1        0.0268
@<TRIPOS>BOND
     1    20    18    1
     2    19    18    1
     3    16    15    1
     4    17    15    1
     5    18    15    1
     6    18     1    1
     7     7     5    1
     8    15    13    1
     9     2     1    1
    10     1     3    1
    11     5     6    1
    12     5     3    1
    13     5     8    1
    14    10     8    1
    15     3     4    1
    16    13    14    1
    17    13    11    1
    18     8    11    1
    19     8     9    1
    20    11    12    1
