@<TRIPOS>MOLECULE
1,3,4,6
 39 40 0 0 0
SMALL
GASTEIGER

@<TRIPOS>ATOM
      1 C           0.1112    2.4911    2.4398 C.3     1  UNL1        0.0000
      2 C          -0.7274    2.1838    3.6935 C.3     1  UNL1        0.0000
      3 C           0.2436    2.5905    4.7874 C.2     1  UNL1        0.0000
      4 C           0.3278    3.9485    4.7533 C.2     1  UNL1        0.0000
      5 C          -0.5888    4.4095    3.6296 C.3     1  UNL1        0.0000
      6 C           0.2304    3.9387    2.4116 C.3     1  UNL1        0.0000
      7 C          -1.7111    3.3633    3.6938 C.3     1  UNL1        0.0000
      8 C          -0.0509    1.6094    1.2788 C.2     1  UNL1        0.0000
      9 C           0.3076    1.3710   -1.0303 C.3     1  UNL1        0.0000
     10 C           0.1414    4.7347    1.1633 C.2     1  UNL1        0.0000
     11 C           1.3159    5.4213   -0.7471 C.3     1  UNL1        0.0000
     12 C          -3.3135    5.3280    5.4713 C.3     1  UNL1        0.0000
     13 C          -2.2154    2.7244    6.7800 C.3     1  UNL1        0.0000
     14 C          -4.4915    2.5291    4.6788 C.3     1  UNL1        0.0000
     15 O          -0.5519    0.5096    1.3175 O.2     1  UNL1        0.0000
     16 O           0.4156    2.1653    0.1404 O.3     1  UNL1        0.0000
     17 O          -0.8518    5.3044    0.7866 O.2     1  UNL1        0.0000
     18 O           1.3139    4.7700    0.5153 O.3     1  UNL1        0.0000
     19 SI         -2.9196    3.4852    5.1775 Si      1  UNL1        0.0000
     20 H          -1.1282    1.1758    3.7333 H       1  UNL1        0.0000
     21 H           0.6423    1.9210    5.5337 H       1  UNL1        0.0000
     22 H           0.7895    4.6028    5.4772 H       1  UNL1        0.0000
     23 H          -0.8737    5.4571    3.6201 H       1  UNL1        0.0000
     24 H          -2.2815    3.3793    2.7619 H       1  UNL1        0.0000
     25 H          -3.6119    5.8193    4.5502 H       1  UNL1        0.0000
     26 H          -2.4558    5.8634    5.8676 H       1  UNL1        0.0000
     27 H          -4.1260    5.4439    6.1814 H       1  UNL1        0.0000
     28 H          -1.9022    1.6961    6.6293 H       1  UNL1        0.0000
     29 H          -2.9731    2.7212    7.5577 H       1  UNL1        0.0000
     30 H          -1.3629    3.2791    7.1586 H       1  UNL1        0.0000
     31 H          -4.2651    1.4983    4.4232 H       1  UNL1        0.0000
     32 H          -4.9722    2.9807    3.8164 H       1  UNL1        0.0000
     33 H          -5.2162    2.5147    5.4865 H       1  UNL1        0.0000
     34 H           0.9475    1.8374   -1.7755 H       1  UNL1        0.0000
     35 H          -0.7280    1.3468   -1.3773 H       1  UNL1        0.0000
     36 H           0.6356    0.3500   -0.8254 H       1  UNL1        0.0000
     37 H           2.3325    5.3499   -1.1244 H       1  UNL1        0.0000
     38 H           1.0196    6.4664   -0.6337 H       1  UNL1        0.0000
     39 H           0.6180    4.9277   -1.4260 H       1  UNL1        0.0000
@<TRIPOS>BOND
     1    34     9    1
     2    39    11    1
     3    35     9    1
     4    37    11    1
     5     9    36    1
     6     9    16    1
     7    11    38    1
     8    11    18    1
     9    16     8    1
    10    18    10    1
    11    17    10    2
    12    10     6    1
    13     8    15    2
    14     8     1    1
    15     6     1    1
    16     6     5    1
    17     1     2    1
    18    24     7    1
    19    23     5    1
    20     5     7    1
    21     5     4    1
    22     2     7    1
    23     2    20    1
    24     2     3    1
    25     7    19    1
    26    32    14    1
    27    31    14    1
    28    25    12    1
    29    14    19    1
    30    14    33    1
    31     4     3    2
    32     4    22    1
    33     3    21    1
    34    19    12    1
    35    19    13    1
    36    12    26    1
    37    12    27    1
    38    28    13    1
    39    13    30    1
    40    13    29    1
