@<TRIPOS>MOLECULE
5,6,7,11
 42 44 0 0 0
SMALL
GASTEIGER

@<TRIPOS>ATOM
      1 SI          7.4229    4.5404    7.3294 Si      1  UNL1        0.0000
      2 O           6.4945    3.3122    6.8063 O.3     1  UNL1        0.0000
      3 C           5.6304    3.0875    5.7077 C.3     1  UNL1        0.0000
      4 C           5.0005    1.6958    5.8924 C.3     1  UNL1        0.0000
      5 C           4.0596    1.3774    4.7385 C.3     1  UNL1        0.0000
      6 C           4.6578    1.4262    3.4694 C.3     1  UNL1        0.0000
      7 C           5.5541    2.4779    3.2499 C.3     1  UNL1        0.0000
      8 C           6.4517    2.8157    4.4354 C.3     1  UNL1        0.0000
      9 C           6.2450    0.7894    5.7948 C.3     1  UNL1        0.0000
     10 C           7.2081    1.5346    4.8442 C.3     1  UNL1        0.0000
     11 C           4.6554    4.2420    5.6600 C.ar    1  UNL1        0.0000
     12 C           4.9019    5.3651    4.8543 C.ar    1  UNL1        0.0000
     13 C           4.1590    6.5291    5.0174 C.ar    1  UNL1        0.0000
     14 C           3.1846    6.6045    5.9939 C.ar    1  UNL1        0.0000
     15 C           2.9657    5.5221    6.8330 C.ar    1  UNL1        0.0000
     16 C           3.6973    4.3610    6.6776 C.ar    1  UNL1        0.0000
     17 C           6.4042    5.9436    8.1241 C.3     1  UNL1        0.0000
     18 C           8.5588    5.3192    6.0029 C.3     1  UNL1        0.0000
     19 C           8.4759    3.6565    8.6434 C.3     1  UNL1        0.0000
     20 H           4.5041    1.5900    6.8592 H       1  UNL1        0.0000
     21 H           3.3992    0.5339    4.9507 H       1  UNL1        0.0000
     22 H           4.3561    0.7581    2.6559 H       1  UNL1        0.0000
     23 H           6.0902    2.5039    2.2989 H       1  UNL1        0.0000
     24 H           7.1432    3.6292    4.2061 H       1  UNL1        0.0000
     25 H           5.9828   -0.2018    5.4210 H       1  UNL1        0.0000
     26 H           6.6993    0.6748    6.7791 H       1  UNL1        0.0000
     27 H           8.1288    1.7970    5.3664 H       1  UNL1        0.0000
     28 H           7.4710    0.9344    3.9715 H       1  UNL1        0.0000
     29 H           5.7378    5.3715    4.1676 H       1  UNL1        0.0000
     30 H           4.3634    7.3808    4.3855 H       1  UNL1        0.0000
     31 H           2.6151    7.5126    6.1229 H       1  UNL1        0.0000
     32 H           2.2290    5.5889    7.6193 H       1  UNL1        0.0000
     33 H           3.5467    3.5412    7.3640 H       1  UNL1        0.0000
     34 H           7.0433    6.6216    8.6806 H       1  UNL1        0.0000
     35 H           5.6680    5.5464    8.8170 H       1  UNL1        0.0000
     36 H           5.8675    6.5315    7.3847 H       1  UNL1        0.0000
     37 H           9.2666    6.0063    6.4563 H       1  UNL1        0.0000
     38 H           7.9939    5.8841    5.2657 H       1  UNL1        0.0000
     39 H           9.1371    4.5664    5.4728 H       1  UNL1        0.0000
     40 H           9.1295    4.3629    9.1430 H       1  UNL1        0.0000
     41 H           9.0993    2.8813    8.2091 H       1  UNL1        0.0000
     42 H           7.8538    3.1902    9.4002 H       1  UNL1        0.0000
@<TRIPOS>BOND
     1    23     7    1
     2    22     6    1
     3     7     6    1
     4     7     8    1
     5     6     5    1
     6    28    10    1
     7    29    12    1
     8    24     8    1
     9    30    13    1
    10     8    10    1
    11     8     3    1
    12     5    21    1
    13     5     4    1
    14    10    27    1
    15    10     9    1
    16    12    13   ar
    17    12    11   ar
    18    13    14   ar
    19    38    18    1
    20    25     9    1
    21    39    18    1
    22    11     3    1
    23    11    16   ar
    24     3     4    1
    25     3     2    1
    26     9     4    1
    27     9    26    1
    28     4    20    1
    29    14    31    1
    30    14    15   ar
    31    18    37    1
    32    18     1    1
    33    16    15   ar
    34    16    33    1
    35     2     1    1
    36    15    32    1
    37     1    17    1
    38     1    19    1
    39    36    17    1
    40    17    34    1
    41    17    35    1
    42    41    19    1
    43    19    40    1
    44    19    42    1
