@<TRIPOS>MOLECULE
1,2,3,5
 25 25 0 0 0
SMALL
GASTEIGER

@<TRIPOS>ATOM
      1 C           6.9818    6.7583   10.1471 C.2     1  UNL1       -0.0584
      2 C           6.9905    6.0191   11.3566 C.3     1  UNL1        0.0231
      3 C           7.4162    6.9016   12.3811 C.2     1  UNL1       -0.0584
      4 C           7.8326    8.1318   11.7783 C.2     1  UNL1       -0.0477
      5 C           7.5541    8.0524   10.4063 C.2     1  UNL1       -0.0477
      6 C           6.5839    6.2175    8.8136 C.3     1  UNL1       -0.0424
      7 H           7.3621    5.5745    8.4010 H       1  UNL1        0.0275
      8 H           6.3941    7.0251    8.1132 H       1  UNL1        0.0275
      9 H           5.6733    5.6318    8.9149 H       1  UNL1        0.0275
     10 C           6.6124    4.5838   11.4887 C.3     1  UNL1       -0.0510
     11 H           7.4175    3.9452   11.1227 H       1  UNL1        0.0242
     12 H           5.7214    4.3697   10.9019 H       1  UNL1        0.0242
     13 H           6.4103    4.3253   12.5246 H       1  UNL1        0.0242
     14 C           7.6602    6.5350   13.8071 C.3     1  UNL1       -0.0424
     15 H           8.6958    6.2235   13.9537 H       1  UNL1        0.0275
     16 H           7.0089    5.7199   14.1096 H       1  UNL1        0.0275
     17 H           7.4642    7.3823   14.4598 H       1  UNL1        0.0275
     18 C           8.4928    9.2520   12.5079 C.3     1  UNL1       -0.0395
     19 H           9.5684    9.0789   12.5808 H       1  UNL1        0.0278
     20 H           8.0944    9.3325   13.5148 H       1  UNL1        0.0278
     21 H           8.3340   10.1990   12.0000 H       1  UNL1        0.0278
     22 C           7.8867    9.0534    9.3456 C.3     1  UNL1       -0.0395
     23 H           8.7044    8.6827    8.7257 H       1  UNL1        0.0278
     24 H           8.1948   10.0007    9.7798 H       1  UNL1        0.0278
     25 H           7.0297    9.2310    8.6993 H       1  UNL1        0.0278
@<TRIPOS>BOND
     1     8     6    1
     2     7     6    1
     3    25    22    1
     4    23    22    1
     5     6     9    1
     6     6     1    1
     7    22    24    1
     8    22     5    1
     9     1     5    2
    10     1     2    1
    11     5     4    1
    12    12    10    1
    13    11    10    1
    14     2    10    1
    15     2     3    1
    16    10    13    1
    17     4     3    2
    18     4    18    1
    19    21    18    1
    20     3    14    1
    21    18    19    1
    22    18    20    1
    23    14    15    1
    24    14    16    1
    25    14    17    1
