@<TRIPOS>MOLECULE
1,2,9,10
 39 40 0 0 0
SMALL
GASTEIGER

@<TRIPOS>ATOM
      1 C           5.4794    2.6908    6.3074 C.3     1  UNL1        0.0000
      2 C           4.6124    3.7256    5.8448 C.3     1  UNL1        0.0000
      3 C           3.4497    4.5527    6.3100 C.3     1  UNL1        0.0000
      4 H           2.6431    3.8822    6.6543 H       1  UNL1        0.0000
      5 H           3.6584    5.2848    7.0923 H       1  UNL1        0.0000
      6 C           3.4321    4.5601    3.9747 C.3     1  UNL1        0.0000
      7 H           3.6291    5.2974    3.1942 H       1  UNL1        0.0000
      8 H           2.6204    3.8918    3.6385 H       1  UNL1        0.0000
      9 C           4.6018    3.7301    4.4170 C.3     1  UNL1        0.0000
     10 C           5.4619    2.6983    3.9352 C.3     1  UNL1        0.0000
     11 C           5.7659    1.8374    5.1164 C.2     1  UNL1        0.0000
     12 C           7.4104    1.4730    8.3402 C.3     1  UNL1        0.0000
     13 H           7.7592    0.7991    7.5627 H       1  UNL1        0.0000
     14 H           7.5427    0.9742    9.2955 H       1  UNL1        0.0000
     15 H           8.0535    2.3511    8.3322 H       1  UNL1        0.0000
     16 C           4.4470    0.4089    8.0542 C.3     1  UNL1        0.0000
     17 H           4.7332   -0.2807    7.2660 H       1  UNL1        0.0000
     18 H           3.4045    0.6758    7.9014 H       1  UNL1        0.0000
     19 H           4.5177   -0.1171    9.0012 H       1  UNL1        0.0000
     20 C           4.9987    3.2394    9.3007 C.3     1  UNL1        0.0000
     21 H           5.1463    2.8733   10.3107 H       1  UNL1        0.0000
     22 H           3.9429    3.4659    9.1879 H       1  UNL1        0.0000
     23 H           5.5494    4.1708    9.2086 H       1  UNL1        0.0000
     24 C           7.3647    1.4892    1.8708 C.3     1  UNL1        0.0000
     25 H           7.7199    0.8052    2.6365 H       1  UNL1        0.0000
     26 H           8.0106    2.3651    1.8825 H       1  UNL1        0.0000
     27 H           7.4854    1.0016    0.9084 H       1  UNL1        0.0000
     28 C           4.4040    0.4285    2.1876 C.3     1  UNL1        0.0000
     29 H           3.3600    0.6982    2.3251 H       1  UNL1        0.0000
     30 H           4.6805   -0.2530    2.9864 H       1  UNL1        0.0000
     31 H           4.4855   -0.1080    1.2476 H       1  UNL1        0.0000
     32 C           4.9431    3.2653    0.9514 C.3     1  UNL1        0.0000
     33 H           5.0673    2.9005   -0.0623 H       1  UNL1        0.0000
     34 H           5.5035    4.1920    1.0345 H       1  UNL1        0.0000
     35 H           3.8917    3.5005    1.0862 H       1  UNL1        0.0000
     36 O           3.0382    5.2678    5.1478 O.3     1  UNL1        0.0000
     37 O           6.1766    0.6895    5.1097 O.2     1  UNL1        0.0000
     38 SI          5.5879    1.9352    8.0373 Si      1  UNL1        0.0000
     39 SI          5.5471    1.9532    2.1995 Si      1  UNL1        0.0000
@<TRIPOS>BOND
     1    33    32    1
     2    27    24    1
     3    32    34    1
     4    32    35    1
     5    32    39    1
     6    31    28    1
     7    24    26    1
     8    24    39    1
     9    24    25    1
    10    28    39    1
    11    28    29    1
    12    28    30    1
    13    39    10    1
    14     7     6    1
    15     8     6    1
    16    10     9    1
    17    10    11    1
    18     6     9    1
    19     6    36    1
    20     9     2    1
    21    37    11    2
    22    11     1    1
    23    36     3    1
    24     2     1    1
    25     2     3    1
    26     1    38    1
    27     3     4    1
    28     3     5    1
    29    17    16    1
    30    13    12    1
    31    18    16    1
    32    38    16    1
    33    38    12    1
    34    38    20    1
    35    16    19    1
    36    15    12    1
    37    12    14    1
    38    22    20    1
    39    23    20    1
    40    20    21    1
