@<TRIPOS>MOLECULE
1,4,5,6
 16 15 0 0 0
SMALL
GASTEIGER

@<TRIPOS>ATOM
      1 C           8.4637   14.2484    6.3209 C.3     1  UNL1       -0.0281
      2 H           8.2418   14.8709    7.2059 H       1  UNL1        0.0313
      3 H           8.6827   13.2346    6.6849 H       1  UNL1        0.0313
      4 C           9.6413   14.7894    5.5588 C.2     1  UNL1       -0.0733
      5 C           9.4703   16.0131    4.9637 C.2     1  UNL1       -0.0733
      6 C           8.1269   16.6621    5.1475 C.3     1  UNL1       -0.0281
      7 H           8.0745   17.5934    4.5659 H       1  UNL1        0.0313
      8 H           7.9548   16.9292    6.2054 H       1  UNL1        0.0313
      9 C          10.9454   14.0302    5.5701 C.3     1  UNL1       -0.0435
     10 H          11.5389   14.2028    4.6735 H       1  UNL1        0.0274
     11 H          10.7642   12.9599    5.6555 H       1  UNL1        0.0274
     12 H          11.5407   14.3404    6.4323 H       1  UNL1        0.0274
     13 C          10.5637   16.7618    4.2416 C.3     1  UNL1       -0.0435
     14 H          11.2786   16.0973    3.7587 H       1  UNL1        0.0274
     15 H          11.1110   17.3844    4.9536 H       1  UNL1        0.0274
     16 H          10.1411   17.4157    3.4802 H       1  UNL1        0.0274
@<TRIPOS>BOND
     1    16    13    1
     2    14    13    1
     3    13    15    1
     4    13     5    1
     5     7     6    1
     6    10     9    1
     7     5     6    1
     8     5     4    2
     9     6     8    1
    10     4     9    1
    11     4     1    1
    12     9    11    1
    13     9    12    1
    14     1     3    1
    15     1     2    1
