@<TRIPOS>MOLECULE
1,4,5,6
 8 7 0 0 0
SMALL
GASTEIGER

@<TRIPOS>ATOM
      1 C           2.3572    3.1885    3.8064 C.3     1  UNL1       -0.0452
      2 H           1.3467    2.7632    3.8811 H       1  UNL1        0.0271
      3 H           3.0966    2.3773    3.7449 H       1  UNL1        0.0271
      4 C           2.6507    4.1754    4.7921 C.3     1  UNL1       -0.0091
      5 C           2.9385    5.3542    5.0811 C.3     1  UNL1       -0.0091
      6 C           3.1968    6.6926    4.6636 C.3     1  UNL1       -0.0452
      7 H           4.2143    7.0449    4.8823 H       1  UNL1        0.0271
      8 H           2.4648    7.4280    5.0268 H       1  UNL1        0.0271
@<TRIPOS>BOND
     1     3     1    1
     2     1     2    1
     3     1     4    1
     4     6     7    1
     5     6     8    1
     6     6     5    1
     7     4     5    1
