@<TRIPOS>MOLECULE
1,3,5,7
 30 31 0 0 0
SMALL
GASTEIGER

@<TRIPOS>ATOM
      1 C          24.0575    2.4852    2.1979 C.3     1  UNL1        0.0124
      2 H          23.9785    2.3045    1.1139 H       1  UNL1        0.0400
      3 C          23.8505    1.3031    3.0321 C.2     1  UNL1       -0.0791
      4 H          24.5400    1.0920    3.8466 H       1  UNL1        0.0575
      5 C          22.7057    0.5568    2.9348 C.2     1  UNL1       -0.0791
      6 H          22.5352   -0.2419    3.6556 H       1  UNL1        0.0575
      7 C          21.6772    0.8338    1.9251 C.3     1  UNL1        0.0124
      8 H          22.0965    0.8796    0.9070 H       1  UNL1        0.0400
      9 C          25.1221    3.4506    2.5107 C.ar    1  UNL1       -0.0397
     10 C          24.9907    4.7503    2.0015 C.ar    1  UNL1       -0.0580
     11 H          24.1102    4.9875    1.4101 H       1  UNL1        0.0620
     12 C          25.9380    5.7189    2.2618 C.ar    1  UNL1       -0.0615
     13 H          25.8134    6.7173    1.8663 H       1  UNL1        0.0618
     14 C          27.0502    5.4157    3.0341 C.ar    1  UNL1       -0.0617
     15 H          27.7917    6.1730    3.2405 H       1  UNL1        0.0618
     16 C          27.2019    4.1342    3.5329 C.ar    1  UNL1       -0.0615
     17 H          28.0701    3.8860    4.1262 H       1  UNL1        0.0618
     18 C          26.2523    3.1609    3.2762 C.ar    1  UNL1       -0.0580
     19 H          26.4060    2.1640    3.6626 H       1  UNL1        0.0620
     20 C          20.4158    0.0990    1.9422 C.ar    1  UNL1       -0.0397
     21 C          19.7380   -0.1696    0.7439 C.ar    1  UNL1       -0.0580
     22 H          20.1834    0.1299   -0.1971 H       1  UNL1        0.0620
     23 C          18.5218   -0.8221    0.7379 C.ar    1  UNL1       -0.0615
     24 H          18.0218   -1.0131   -0.2011 H       1  UNL1        0.0618
     25 C          17.9464   -1.2423    1.9263 C.ar    1  UNL1       -0.0617
     26 H          16.9958   -1.7542    1.9213 H       1  UNL1        0.0618
     27 C          18.6120   -1.0088    3.1191 C.ar    1  UNL1       -0.0615
     28 H          18.1824   -1.3450    4.0522 H       1  UNL1        0.0618
     29 C          19.8251   -0.3503    3.1298 C.ar    1  UNL1       -0.0580
     30 H          20.3252   -0.1853    4.0731 H       1  UNL1        0.0620
@<TRIPOS>BOND
     1    24    23    1
     2    22    21    1
     3    23    21   ar
     4    23    25   ar
     5    21    20   ar
     6     8     7    1
     7     2     1    1
     8    11    10    1
     9    13    12    1
    10    26    25    1
    11     7    20    1
    12     7     5    1
    13    25    27   ar
    14    20    29   ar
    15    10    12   ar
    16    10     9   ar
    17     1     9    1
    18     1     3    1
    19    12    14   ar
    20     9    18   ar
    21     5     3    2
    22     5     6    1
    23     3     4    1
    24    14    15    1
    25    14    16   ar
    26    27    29   ar
    27    27    28    1
    28    29    30    1
    29    18    16   ar
    30    18    19    1
    31    16    17    1
