@<TRIPOS>MOLECULE
12,14,16,18
 30 31 0 0 0
SMALL
GASTEIGER

@<TRIPOS>ATOM
      1 C           5.3940   -0.2638    2.4534 C.ar    1  UNL1       -0.0397
      2 C           5.1650   -1.6448    2.5366 C.ar    1  UNL1       -0.0580
      3 H           5.9343   -2.3426    2.2402 H       1  UNL1        0.0620
      4 C           3.9501   -2.1418    2.9687 C.ar    1  UNL1       -0.0615
      5 H           3.8012   -3.2115    3.0193 H       1  UNL1        0.0618
      6 C           2.9232   -1.2857    3.3302 C.ar    1  UNL1       -0.0617
      7 H           1.9767   -1.6802    3.6677 H       1  UNL1        0.0618
      8 C           3.1252    0.0852    3.2483 C.ar    1  UNL1       -0.0615
      9 H           2.3319    0.7645    3.5252 H       1  UNL1        0.0618
     10 C           4.3340    0.5860    2.8163 C.ar    1  UNL1       -0.0580
     11 H           4.4818    1.6583    2.7632 H       1  UNL1        0.0620
     12 C           6.6393    0.3409    2.0186 C.3     1  UNL1        0.0124
     13 H           6.4600    1.3111    1.5291 H       1  UNL1        0.0400
     14 C           7.7527   -0.4021    1.4668 C.2     1  UNL1       -0.0791
     15 H           7.6703   -1.4826    1.3654 H       1  UNL1        0.0575
     16 C           8.9504    0.1882    1.1430 C.2     1  UNL1       -0.0791
     17 H           9.7503   -0.4558    0.7864 H       1  UNL1        0.0575
     18 C           9.2306    1.6057    1.3087 C.3     1  UNL1        0.0124
     19 H           8.4326    2.2706    0.9432 H       1  UNL1        0.0400
     20 C          10.5475    2.1471    1.0090 C.ar    1  UNL1       -0.0397
     21 C          10.6857    3.5262    0.7837 C.ar    1  UNL1       -0.0580
     22 H           9.8016    4.1487    0.8052 H       1  UNL1        0.0620
     23 C          11.9129    4.0992    0.5272 C.ar    1  UNL1       -0.0615
     24 H          11.9832    5.1655    0.3624 H       1  UNL1        0.0618
     25 C          13.0543    3.3144    0.4664 C.ar    1  UNL1       -0.0617
     26 H          14.0163    3.7604    0.2629 H       1  UNL1        0.0618
     27 C          12.9401    1.9476    0.6581 C.ar    1  UNL1       -0.0615
     28 H          13.8198    1.3216    0.5970 H       1  UNL1        0.0618
     29 C          11.7136    1.3727    0.9250 C.ar    1  UNL1       -0.0580
     30 H          11.6646    0.3024    1.0621 H       1  UNL1        0.0620
@<TRIPOS>BOND
     1    26    25    1
     2    24    23    1
     3    25    23   ar
     4    25    27   ar
     5    23    21   ar
     6    28    27    1
     7    27    29   ar
     8    21    22    1
     9    21    20   ar
    10    17    16    1
    11    29    20   ar
    12    29    30    1
    13    19    18    1
    14    20    18    1
    15    16    18    1
    16    16    14    2
    17    15    14    1
    18    14    12    1
    19    13    12    1
    20    12     1    1
    21     3     2    1
    22     1     2   ar
    23     1    10   ar
    24     2     4   ar
    25    11    10    1
    26    10     8   ar
    27     4     5    1
    28     4     6   ar
    29     8     6   ar
    30     8     9    1
    31     6     7    1
