@<TRIPOS>MOLECULE
5,6,19,20
 44 45 0 0 0
SMALL
GASTEIGER

@<TRIPOS>ATOM
      1 SI         11.4312    5.2891    2.1345 Si      1  UNL1        0.0000
      2 SI          8.3903    8.5191   -1.5022 Si      1  UNL1        0.0000
      3 O          10.5978    6.3480   -0.7167 O.2     1  UNL1        0.0000
      4 C           9.8970    6.7426    0.2048 C.2     1  UNL1        0.0000
      5 C           8.7675    7.6953    0.1492 C.3     1  UNL1        0.0000
      6 C           8.5888    8.2052    1.4811 C.2     1  UNL1        0.0000
      7 C           8.0577    9.5607    1.8439 C.3     1  UNL1        0.0000
      8 H           7.0214    9.6800    1.5239 H       1  UNL1        0.0000
      9 H           8.6511   10.2966    1.2908 H       1  UNL1        0.0000
     10 C           8.1847    9.8345    3.3430 C.3     1  UNL1        0.0000
     11 H           8.0867   10.9072    3.5257 H       1  UNL1        0.0000
     12 H           7.3744    9.3350    3.8758 H       1  UNL1        0.0000
     13 C           9.5216    9.3334    3.8840 C.3     1  UNL1        0.0000
     14 H           9.6455    9.6456    4.9238 H       1  UNL1        0.0000
     15 H          10.3315    9.7769    3.3006 H       1  UNL1        0.0000
     16 C           9.6103    7.8078    3.7877 C.3     1  UNL1        0.0000
     17 H          10.6100    7.4728    4.0683 H       1  UNL1        0.0000
     18 H           8.9093    7.3566    4.4927 H       1  UNL1        0.0000
     19 C           9.3289    7.3910    2.3731 C.2     1  UNL1        0.0000
     20 C           9.9637    6.3473    1.6307 C.3     1  UNL1        0.0000
     21 C           9.9433    9.5175   -1.9942 C.3     1  UNL1        0.0000
     22 H          10.8070    8.8612   -2.0164 H       1  UNL1        0.0000
     23 H          10.1541   10.3206   -1.2933 H       1  UNL1        0.0000
     24 H           9.8324    9.9595   -2.9796 H       1  UNL1        0.0000
     25 C           6.8859    9.6951   -1.4132 C.3     1  UNL1        0.0000
     26 H           6.5850    9.9816   -2.4154 H       1  UNL1        0.0000
     27 H           7.1034   10.6068   -0.8677 H       1  UNL1        0.0000
     28 H           6.0329    9.2184   -0.9426 H       1  UNL1        0.0000
     29 C           8.0140    7.1669   -2.7865 C.3     1  UNL1        0.0000
     30 H           8.8175    6.4387   -2.8023 H       1  UNL1        0.0000
     31 H           7.9117    7.5770   -3.7868 H       1  UNL1        0.0000
     32 H           7.0949    6.6403   -2.5448 H       1  UNL1        0.0000
     33 C          11.3121    4.7408    3.9722 C.3     1  UNL1        0.0000
     34 H          11.9506    5.3555    4.5983 H       1  UNL1        0.0000
     35 H          11.6428    3.7148    4.0911 H       1  UNL1        0.0000
     36 H          10.3046    4.8101    4.3702 H       1  UNL1        0.0000
     37 C          12.9973    6.3721    1.9498 C.3     1  UNL1        0.0000
     38 H          13.0778    6.7284    0.9278 H       1  UNL1        0.0000
     39 H          13.8983    5.8100    2.1791 H       1  UNL1        0.0000
     40 H          12.9753    7.2417    2.6016 H       1  UNL1        0.0000
     41 C          11.5610    3.7836    0.9784 C.3     1  UNL1        0.0000
     42 H          10.5950    3.3208    0.8062 H       1  UNL1        0.0000
     43 H          12.2405    3.0272    1.3609 H       1  UNL1        0.0000
     44 H          11.9285    4.1117    0.0123 H       1  UNL1        0.0000
@<TRIPOS>BOND
     1    31    29    1
     2    24    21    1
     3    30    29    1
     4    29    32    1
     5    29     2    1
     6    26    25    1
     7    22    21    1
     8    21     2    1
     9    21    23    1
    10     2    25    1
    11     2     5    1
    12    25    28    1
    13    25    27    1
    14     3     4    2
    15    44    41    1
    16     5     4    1
    17     5     6    1
    18     4    20    1
    19    42    41    1
    20    38    37    1
    21    41    43    1
    22    41     1    1
    23     9     7    1
    24     6     7    1
    25     6    19    2
    26     8     7    1
    27    20     1    1
    28    20    19    1
    29     7    10    1
    30    37     1    1
    31    37    39    1
    32    37    40    1
    33     1    33    1
    34    19    16    1
    35    15    13    1
    36    10    11    1
    37    10    12    1
    38    10    13    1
    39    16    13    1
    40    16    17    1
    41    16    18    1
    42    13    14    1
    43    33    35    1
    44    33    36    1
    45    33    34    1
