@<TRIPOS>MOLECULE
3,5,6,7
 44 45 0 0 0
SMALL
GASTEIGER

@<TRIPOS>ATOM
      1 SI          3.1405    1.7261    8.4058 Si      1  UNL1        0.0000
      2 SI          0.5661    6.8081    7.9842 Si      1  UNL1        0.0000
      3 C           1.8333    2.9170    7.7551 C.3     1  UNL1        0.0000
      4 C           1.9977    4.3466    8.0892 C.2     1  UNL1        0.0000
      5 C           0.7819    4.9938    7.5421 C.3     1  UNL1        0.0000
      6 C          -0.2000    3.9674    7.4141 C.2     1  UNL1        0.0000
      7 C           0.4304    2.7014    7.5129 C.2     1  UNL1        0.0000
      8 C          -0.3233    1.4284    7.7648 C.3     1  UNL1        0.0000
      9 H          -0.1112    1.1278    8.7970 H       1  UNL1        0.0000
     10 H           0.0260    0.6225    7.1178 H       1  UNL1        0.0000
     11 C          -1.8297    1.6251    7.5944 C.3     1  UNL1        0.0000
     12 H          -2.0781    1.6392    6.5338 H       1  UNL1        0.0000
     13 H          -2.3581    0.7859    8.0527 H       1  UNL1        0.0000
     14 C          -2.2868    2.9391    8.2211 C.3     1  UNL1        0.0000
     15 H          -1.9608    2.9801    9.2630 H       1  UNL1        0.0000
     16 H          -3.3771    3.0019    8.2031 H       1  UNL1        0.0000
     17 C          -1.6904    4.1196    7.4520 C.3     1  UNL1        0.0000
     18 H          -2.1151    4.1326    6.4480 H       1  UNL1        0.0000
     19 H          -1.9473    5.0628    7.9367 H       1  UNL1        0.0000
     20 O           2.9334    4.8823    8.6688 O.2     1  UNL1        0.0000
     21 C           4.8324    2.2541    7.7133 C.3     1  UNL1        0.0000
     22 H           5.6475    1.6932    8.1608 H       1  UNL1        0.0000
     23 H           4.9982    3.3071    7.9137 H       1  UNL1        0.0000
     24 H           4.8796    2.1113    6.6375 H       1  UNL1        0.0000
     25 C           3.1062    1.8605   10.3107 C.3     1  UNL1        0.0000
     26 H           2.1578    1.5321   10.7265 H       1  UNL1        0.0000
     27 H           3.2587    2.8931   10.6059 H       1  UNL1        0.0000
     28 H           3.8910    1.2623   10.7633 H       1  UNL1        0.0000
     29 C           2.8124   -0.0894    7.9042 C.3     1  UNL1        0.0000
     30 H           2.6580   -0.1883    6.8354 H       1  UNL1        0.0000
     31 H           1.9486   -0.5092    8.4079 H       1  UNL1        0.0000
     32 H           3.6694   -0.7010    8.1657 H       1  UNL1        0.0000
     33 C           0.3023    6.8914    9.8762 C.3     1  UNL1        0.0000
     34 H          -0.5977    6.3670   10.1871 H       1  UNL1        0.0000
     35 H           0.2240    7.9181   10.2229 H       1  UNL1        0.0000
     36 H           1.1443    6.4312   10.3832 H       1  UNL1        0.0000
     37 C          -0.9652    7.6052    7.1430 C.3     1  UNL1        0.0000
     38 H          -1.3020    7.0654    6.2651 H       1  UNL1        0.0000
     39 H          -0.7443    8.6219    6.8365 H       1  UNL1        0.0000
     40 H          -1.8007    7.6541    7.8337 H       1  UNL1        0.0000
     41 C           2.1411    7.7697    7.5165 C.3     1  UNL1        0.0000
     42 H           2.9539    7.4450    8.1567 H       1  UNL1        0.0000
     43 H           2.0173    8.8418    7.6421 H       1  UNL1        0.0000
     44 H           2.4493    7.5799    6.4938 H       1  UNL1        0.0000
@<TRIPOS>BOND
     1    38    37    1
     2    18    17    1
     3    44    41    1
     4    12    11    1
     5    24    21    1
     6    30    29    1
     7    39    37    1
     8    10     8    1
     9    37    40    1
    10    37     2    1
    11     6    17    1
    12     6     7    2
    13     6     5    1
    14    17    19    1
    15    17    14    1
    16     7     3    1
    17     7     8    1
    18    41    43    1
    19    41     2    1
    20    41    42    1
    21     5     2    1
    22     5     4    1
    23    11     8    1
    24    11    13    1
    25    11    14    1
    26    21    23    1
    27    21    22    1
    28    21     1    1
    29     3     4    1
    30     3     1    1
    31     8     9    1
    32    29    32    1
    33    29     1    1
    34    29    31    1
    35     2    33    1
    36     4    20    2
    37    16    14    1
    38    14    15    1
    39     1    25    1
    40    33    34    1
    41    33    35    1
    42    33    36    1
    43    25    27    1
    44    25    26    1
    45    25    28    1
