@<TRIPOS>MOLECULE
4,5,6,7
 44 45 0 0 0
SMALL
GASTEIGER

@<TRIPOS>ATOM
      1 SI          5.8572    7.3278   12.4687 Si      1  UNL1        0.0000
      2 SI          7.5701    2.2783   10.1445 Si      1  UNL1        0.0000
      3 C           6.8061    4.6369   11.6464 C.2     1  UNL1        0.0000
      4 C           6.9920    6.0915   11.6098 C.3     1  UNL1        0.0000
      5 C           7.7172    6.3916   10.4110 C.3     1  UNL1        0.0000
      6 C           8.1079    5.1765    9.7774 C.2     1  UNL1        0.0000
      7 C           7.7206    4.0950   10.6076 C.2     1  UNL1        0.0000
      8 O           6.1049    3.9760   12.4143 O.2     1  UNL1        0.0000
      9 C           7.8769    7.7150    9.7289 C.3     1  UNL1        0.0000
     10 H           8.1226    8.4954   10.4501 H       1  UNL1        0.0000
     11 H           6.9271    7.9852    9.2582 H       1  UNL1        0.0000
     12 C           8.7065    5.1149    8.3992 C.3     1  UNL1        0.0000
     13 H           8.1814    4.3534    7.8177 H       1  UNL1        0.0000
     14 H           9.7537    4.8096    8.4519 H       1  UNL1        0.0000
     15 C           4.7583    8.1761   11.1445 C.3     1  UNL1        0.0000
     16 H           4.4070    7.4676   10.4000 H       1  UNL1        0.0000
     17 H           5.2856    8.9714   10.6276 H       1  UNL1        0.0000
     18 H           3.8826    8.6211   11.6083 H       1  UNL1        0.0000
     19 C           6.8625    8.6930   13.3564 C.3     1  UNL1        0.0000
     20 H           6.2056    9.4922   13.6843 H       1  UNL1        0.0000
     21 H           7.6083    9.1332   12.7027 H       1  UNL1        0.0000
     22 H           7.3828    8.3210   14.2335 H       1  UNL1        0.0000
     23 C           4.6768    6.5142   13.7297 C.3     1  UNL1        0.0000
     24 H           3.6949    6.9755   13.6892 H       1  UNL1        0.0000
     25 H           5.0389    6.6094   14.7486 H       1  UNL1        0.0000
     26 H           4.5520    5.4591   13.5133 H       1  UNL1        0.0000
     27 C           5.9071    2.1014    9.2190 C.3     1  UNL1        0.0000
     28 H           5.0870    2.3794    9.8736 H       1  UNL1        0.0000
     29 H           5.7415    1.0787    8.8923 H       1  UNL1        0.0000
     30 H           5.8589    2.7409    8.3416 H       1  UNL1        0.0000
     31 C           8.9936    1.7163    8.9906 C.3     1  UNL1        0.0000
     32 H           8.7112    1.8178    7.9483 H       1  UNL1        0.0000
     33 H           9.2303    0.6708    9.1577 H       1  UNL1        0.0000
     34 H           9.9063    2.2861    9.1329 H       1  UNL1        0.0000
     35 C           7.5460    1.1605   11.6899 C.3     1  UNL1        0.0000
     36 H           8.5386    0.9040   12.0451 H       1  UNL1        0.0000
     37 H           7.0246    0.2316   11.4789 H       1  UNL1        0.0000
     38 H           7.0159    1.6601   12.4931 H       1  UNL1        0.0000
     39 C           8.9555    7.6085    8.6534 C.3     1  UNL1        0.0000
     40 H           9.0310    8.5499    8.1062 H       1  UNL1        0.0000
     41 H           9.9199    7.4084    9.1272 H       1  UNL1        0.0000
     42 C           8.6086    6.4710    7.6960 C.3     1  UNL1        0.0000
     43 H           9.2783    6.4826    6.8341 H       1  UNL1        0.0000
     44 H           7.5903    6.6202    7.3284 H       1  UNL1        0.0000
@<TRIPOS>BOND
     1    43    42    1
     2    44    42    1
     3    42    12    1
     4    42    39    1
     5    13    12    1
     6    32    31    1
     7    40    39    1
     8    30    27    1
     9    12    14    1
    10    12     6    1
    11    39    41    1
    12    39     9    1
    13    29    27    1
    14    31    34    1
    15    31    33    1
    16    31     2    1
    17    27    28    1
    18    27     2    1
    19    11     9    1
    20     9     5    1
    21     9    10    1
    22     6     5    1
    23     6     7    2
    24     2     7    1
    25     2    35    1
    26    16    15    1
    27     5     4    1
    28     7     3    1
    29    17    15    1
    30    15    18    1
    31    15     1    1
    32    37    35    1
    33     4     3    1
    34     4     1    1
    35     3     8    2
    36    35    36    1
    37    35    38    1
    38     1    19    1
    39     1    23    1
    40    21    19    1
    41    19    20    1
    42    19    22    1
    43    26    23    1
    44    24    23    1
    45    23    25    1
