@<TRIPOS>MOLECULE
5,6,19,20
 44 45 0 0 0
SMALL
GASTEIGER

@<TRIPOS>ATOM
      1 SI          3.8899    9.2845   12.5145 Si      1  UNL1        0.0000
      2 SI          3.5767   11.4073    7.1246 Si      1  UNL1        0.0000
      3 O           3.6364   11.7242   10.2560 O.2     1  UNL1        0.0000
      4 C           3.9377   10.5973    9.8656 C.2     1  UNL1        0.0000
      5 C           4.0755   10.1785    8.4540 C.3     1  UNL1        0.0000
      6 C           4.0315    8.7634    8.4358 C.3     1  UNL1        0.0000
      7 C           3.6765    7.8655    7.2847 C.3     1  UNL1        0.0000
      8 H           4.5194    7.7627    6.5986 H       1  UNL1        0.0000
      9 H           2.8609    8.3234    6.7201 H       1  UNL1        0.0000
     10 C           3.2582    6.4800    7.7828 C.3     1  UNL1        0.0000
     11 H           3.2448    5.7809    6.9445 H       1  UNL1        0.0000
     12 H           2.2464    6.5283    8.1937 H       1  UNL1        0.0000
     13 C           4.2080    5.9863    8.8711 C.3     1  UNL1        0.0000
     14 H           4.0008    4.9405    9.1061 H       1  UNL1        0.0000
     15 H           5.2390    6.0585    8.5165 H       1  UNL1        0.0000
     16 C           4.0410    6.8431   10.1238 C.3     1  UNL1        0.0000
     17 H           3.0370    6.6908   10.5327 H       1  UNL1        0.0000
     18 H           4.7549    6.5487   10.8934 H       1  UNL1        0.0000
     19 C           4.1979    8.2918    9.7750 C.3     1  UNL1        0.0000
     20 C           4.2581    9.4079   10.6701 C.3     1  UNL1        0.0000
     21 C           5.0531    8.0243   13.3622 C.3     1  UNL1        0.0000
     22 H           5.2229    8.2972   14.3985 H       1  UNL1        0.0000
     23 H           6.0222    7.9719   12.8772 H       1  UNL1        0.0000
     24 H           4.6278    7.0261   13.3558 H       1  UNL1        0.0000
     25 C           2.0743    8.6977   12.6962 C.3     1  UNL1        0.0000
     26 H           1.7809    8.6692   13.7416 H       1  UNL1        0.0000
     27 H           1.9154    7.7044   12.2879 H       1  UNL1        0.0000
     28 H           1.3999    9.3767   12.1830 H       1  UNL1        0.0000
     29 C           4.0205   10.9480   13.4364 C.3     1  UNL1        0.0000
     30 H           3.6505   11.7558   12.8154 H       1  UNL1        0.0000
     31 H           5.0398   11.1803   13.7284 H       1  UNL1        0.0000
     32 H           3.4193   10.9226   14.3406 H       1  UNL1        0.0000
     33 C           1.6851   11.6555    7.2346 C.3     1  UNL1        0.0000
     34 H           1.1420   10.7366    7.0309 H       1  UNL1        0.0000
     35 H           1.3424   12.4059    6.5279 H       1  UNL1        0.0000
     36 H           1.4118   11.9861    8.2318 H       1  UNL1        0.0000
     37 C           4.4488   13.0776    7.4427 C.3     1  UNL1        0.0000
     38 H           3.8630   13.6649    8.1414 H       1  UNL1        0.0000
     39 H           4.5664   13.6587    6.5326 H       1  UNL1        0.0000
     40 H           5.4306   12.9432    7.8863 H       1  UNL1        0.0000
     41 C           4.0165   10.7451    5.3833 C.3     1  UNL1        0.0000
     42 H           4.8824   10.0917    5.3960 H       1  UNL1        0.0000
     43 H           4.2276   11.5617    4.7010 H       1  UNL1        0.0000
     44 H           3.1899   10.1821    4.9628 H       1  UNL1        0.0000
@<TRIPOS>BOND
     1    43    41    1
     2    44    41    1
     3    41    42    1
     4    41     2    1
     5    35    33    1
     6    39    37    1
     7     8     7    1
     8     9     7    1
     9    11    10    1
    10    34    33    1
    11     2    33    1
    12     2    37    1
    13     2     5    1
    14    33    36    1
    15     7    10    1
    16     7     6    1
    17    37    40    1
    18    37    38    1
    19    10    12    1
    20    10    13    1
    21     6     5    1
    22     6    19    1
    23     5     4    1
    24    15    13    1
    25    13    14    1
    26    13    16    1
    27    19    16    1
    28    19    20    1
    29     4     3    2
    30     4    20    1
    31    16    17    1
    32    16    18    1
    33    20     1    1
    34    28    25    1
    35    27    25    1
    36     1    25    1
    37     1    21    1
    38     1    29    1
    39    25    26    1
    40    30    29    1
    41    23    21    1
    42    24    21    1
    43    21    22    1
    44    29    31    1
    45    29    32    1
