@<TRIPOS>MOLECULE
4,7,8,9
 60 63 0 0 0
SMALL
GASTEIGER

@<TRIPOS>ATOM
      1 SI          4.7986   18.7998    6.7307 Si      1  UNL1        0.0000
      2 SI          5.1125   14.9589    2.3582 Si      1  UNL1        0.0000
      3 C           5.0023   20.3407    3.5727 C.3     1  UNL1        0.0000
      4 C           5.2173   18.8741    3.7323 C.3     1  UNL1        0.0000
      5 O           4.4224   15.8542    5.3061 O.2     1  UNL1        0.0000
      6 C           4.9029   16.7367    4.6175 C.2     1  UNL1        0.0000
      7 C           5.3921   16.6202    3.2259 C.3     1  UNL1        0.0000
      8 C           5.3737   17.9371    2.6563 C.3     1  UNL1        0.0000
      9 C           5.1559   18.1614    4.9761 C.3     1  UNL1        0.0000
     10 C           5.1905   18.2218    1.1868 C.3     1  UNL1        0.0000
     11 H           5.3583   19.2871    0.9831 H       1  UNL1        0.0000
     12 H           5.8852   17.6320    0.5848 H       1  UNL1        0.0000
     13 C           4.5243   17.3110    7.8884 C.3     1  UNL1        0.0000
     14 H           4.3502   17.6506    8.9054 H       1  UNL1        0.0000
     15 H           5.3866   16.6514    7.9019 H       1  UNL1        0.0000
     16 H           3.6745   16.7114    7.5821 H       1  UNL1        0.0000
     17 C           3.2268   14.6905    2.3186 C.3     1  UNL1        0.0000
     18 H           2.9840   13.7081    1.9263 H       1  UNL1        0.0000
     19 H           2.7399   15.4317    1.6913 H       1  UNL1        0.0000
     20 H           2.8115   14.7642    3.3189 H       1  UNL1        0.0000
     21 O           2.9414   20.1532    2.2102 O.3     1  UNL1        0.0000
     22 O           5.7240   20.9452    2.5261 O.3     1  UNL1        0.0000
     23 O           5.4198   21.0497    4.7395 O.3     1  UNL1        0.0000
     24 O           3.8990   17.8220    0.7856 O.3     1  UNL1        0.0000
     25 H           3.2661   18.3798    1.2604 H       1  UNL1        0.0000
     26 C           5.3571   22.2805    2.8179 C.3     1  UNL1        0.0000
     27 H           5.8285   22.9748    2.1312 H       1  UNL1        0.0000
     28 O           3.3124   22.2635    1.4717 O.3     1  UNL1        0.0000
     29 C           3.8136   22.2458    2.7779 C.3     1  UNL1        0.0000
     30 H           3.3653   23.0403    3.3859 H       1  UNL1        0.0000
     31 C           5.7513   22.3602    4.3009 C.3     1  UNL1        0.0000
     32 H           6.8255   22.5235    4.4289 H       1  UNL1        0.0000
     33 H           5.1854   23.1032    4.8664 H       1  UNL1        0.0000
     34 C           3.5404   20.8138    3.2927 C.3     1  UNL1        0.0000
     35 H           2.9263   20.7528    4.1944 H       1  UNL1        0.0000
     36 C           2.4570   21.1457    1.3027 C.3     1  UNL1        0.0000
     37 C           6.3145   19.7415    7.4155 C.3     1  UNL1        0.0000
     38 H           6.4551   20.6933    6.9170 H       1  UNL1        0.0000
     39 H           7.2275   19.1612    7.2935 H       1  UNL1        0.0000
     40 H           6.1907   19.9378    8.4758 H       1  UNL1        0.0000
     41 C           1.0113   21.5133    1.6567 C.3     1  UNL1        0.0000
     42 H           0.9518   21.8645    2.6843 H       1  UNL1        0.0000
     43 H           0.3769   20.6392    1.5447 H       1  UNL1        0.0000
     44 H           0.6685   22.3017    0.9937 H       1  UNL1        0.0000
     45 C           6.0194   13.6638    3.4255 C.3     1  UNL1        0.0000
     46 H           5.6575   13.7007    4.4482 H       1  UNL1        0.0000
     47 H           7.0929   13.8406    3.4463 H       1  UNL1        0.0000
     48 H           5.8576   12.6581    3.0509 H       1  UNL1        0.0000
     49 C           3.2236   19.8804    6.7934 C.3     1  UNL1        0.0000
     50 H           2.4136   19.4547    6.2083 H       1  UNL1        0.0000
     51 H           3.4182   20.8868    6.4397 H       1  UNL1        0.0000
     52 H           2.8789   19.9552    7.8196 H       1  UNL1        0.0000
     53 C           2.5698   20.6478   -0.1317 C.3     1  UNL1        0.0000
     54 H           2.2509   21.4396   -0.8023 H       1  UNL1        0.0000
     55 H           1.9442   19.7723   -0.2729 H       1  UNL1        0.0000
     56 H           3.6015   20.3926   -0.3541 H       1  UNL1        0.0000
     57 C           5.8293   14.9080    0.5912 C.3     1  UNL1        0.0000
     58 H           6.8547   15.2634    0.5456 H       1  UNL1        0.0000
     59 H           5.2313   15.4974   -0.0951 H       1  UNL1        0.0000
     60 H           5.8253   13.8851    0.2295 H       1  UNL1        0.0000
@<TRIPOS>BOND
     1    54    53    1
     2    56    53    1
     3    55    53    1
     4    53    36    1
     5    59    57    1
     6    60    57    1
     7    58    57    1
     8    12    10    1
     9    57     2    1
    10    24    10    1
    11    24    25    1
    12    11    10    1
    13    44    41    1
    14    10     8    1
    15    36    28    1
    16    36    41    1
    17    36    21    1
    18    28    29    1
    19    43    41    1
    20    41    42    1
    21    19    17    1
    22    18    17    1
    23    27    26    1
    24    21    34    1
    25    17     2    1
    26    17    20    1
    27     2     7    1
    28     2    45    1
    29    22    26    1
    30    22     3    1
    31     8     7    1
    32     8     4    1
    33    29    26    1
    34    29    34    1
    35    29    30    1
    36    26    31    1
    37    48    45    1
    38     7     6    1
    39    34     3    1
    40    34    35    1
    41    45    47    1
    42    45    46    1
    43     3     4    1
    44     3    23    1
    45     4     9    1
    46    31    32    1
    47    31    23    1
    48    31    33    1
    49     6     9    1
    50     6     5    2
    51     9     1    1
    52    50    49    1
    53    51    49    1
    54     1    49    1
    55     1    37    1
    56     1    13    1
    57    49    52    1
    58    38    37    1
    59    39    37    1
    60    37    40    1
    61    16    13    1
    62    13    15    1
    63    13    14    1
