@<TRIPOS>MOLECULE
21,22,24,25
 58 62 0 0 0
SMALL
GASTEIGER

@<TRIPOS>ATOM
      1 SI          9.0747    7.2733    3.9956 Si      1  UNL1        0.0000
      2 C           7.5009    3.0882   -2.3554 C.3     1  UNL1        0.0000
      3 H           6.6861    3.8090   -2.1925 H       1  UNL1        0.0000
      4 H           8.4255    3.6424   -2.5299 H       1  UNL1        0.0000
      5 C           7.6757    2.2321   -1.0912 C.3     1  UNL1        0.0000
      6 H           8.3835    1.4202   -1.2882 H       1  UNL1        0.0000
      7 C           6.3364    1.6663   -0.5815 C.3     1  UNL1        0.0000
      8 H           5.5452    1.7485   -1.3389 H       1  UNL1        0.0000
      9 C           6.0302    2.4856    0.6830 C.3     1  UNL1        0.0000
     10 H           5.0688    3.0147    0.6537 H       1  UNL1        0.0000
     11 C           7.1822    3.5055    0.7776 C.3     1  UNL1        0.0000
     12 C           5.9041    0.2652    1.1790 C.3     1  UNL1        0.0000
     13 C           4.4123   -0.0870    1.1253 C.3     1  UNL1        0.0000
     14 H           3.8686    0.6520    0.5412 H       1  UNL1        0.0000
     15 H           4.0120   -0.1032    2.1345 H       1  UNL1        0.0000
     16 H           4.2880   -1.0624    0.6649 H       1  UNL1        0.0000
     17 C           6.6864   -0.7485    2.0001 C.3     1  UNL1        0.0000
     18 H           6.5377   -1.7401    1.5853 H       1  UNL1        0.0000
     19 H           6.3399   -0.7195    3.0281 H       1  UNL1        0.0000
     20 H           7.7425   -0.5000    1.9723 H       1  UNL1        0.0000
     21 C           7.6959    3.8172    2.1575 C.3     1  UNL1        0.0000
     22 C           8.4566    3.2250    3.2166 C.3     1  UNL1        0.0000
     23 C           9.1885    4.3615    3.8836 C.2     1  UNL1        0.0000
     24 C           8.4047    5.5731    3.5068 C.3     1  UNL1        0.0000
     25 C           7.6781    5.2287    2.3326 C.3     1  UNL1        0.0000
     26 C           7.2111    5.8517    1.0531 C.3     1  UNL1        0.0000
     27 H           6.4140    6.5938    1.1387 H       1  UNL1        0.0000
     28 H           8.0684    6.3001    0.5285 H       1  UNL1        0.0000
     29 C           9.0023    1.8584    3.2704 C.ar    1  UNL1        0.0000
     30 C           8.8809    1.0929    4.4258 C.ar    1  UNL1        0.0000
     31 H           8.3174    1.4862    5.2641 H       1  UNL1        0.0000
     32 C           9.4673   -0.1564    4.5034 C.ar    1  UNL1        0.0000
     33 H           9.3676   -0.7412    5.4059 H       1  UNL1        0.0000
     34 C          10.1830   -0.6557    3.4280 C.ar    1  UNL1        0.0000
     35 H          10.6428   -1.6310    3.4887 H       1  UNL1        0.0000
     36 C          10.3083    0.1013    2.2745 C.ar    1  UNL1        0.0000
     37 H          10.8680   -0.2830    1.4340 H       1  UNL1        0.0000
     38 C           9.7266    1.3538    2.1929 C.ar    1  UNL1        0.0000
     39 H           9.8308    1.9499    1.2990 H       1  UNL1        0.0000
     40 C          10.7907    7.4375    3.1848 C.3     1  UNL1        0.0000
     41 H          10.7353    7.4011    2.1000 H       1  UNL1        0.0000
     42 H          11.4374    6.6287    3.5115 H       1  UNL1        0.0000
     43 H          11.2632    8.3750    3.4604 H       1  UNL1        0.0000
     44 C           9.1626    7.3353    5.8959 C.3     1  UNL1        0.0000
     45 H           9.6186    8.2572    6.2431 H       1  UNL1        0.0000
     46 H           9.7600    6.5083    6.2688 H       1  UNL1        0.0000
     47 H           8.1756    7.2634    6.3479 H       1  UNL1        0.0000
     48 C           7.8682    8.5942    3.3278 C.3     1  UNL1        0.0000
     49 H           6.8464    8.4077    3.6455 H       1  UNL1        0.0000
     50 H           7.8756    8.6384    2.2431 H       1  UNL1        0.0000
     51 H           8.1477    9.5757    3.6944 H       1  UNL1        0.0000
     52 O           7.2899    2.3157   -3.5048 O.3     1  UNL1        0.0000
     53 H           6.5320    1.7346   -3.3723 H       1  UNL1        0.0000
     54 O           8.2135    3.0058   -0.0292 O.3     1  UNL1        0.0000
     55 O           6.4475    0.3408   -0.1304 O.3     1  UNL1        0.0000
     56 O           6.0814    1.5631    1.7349 O.3     1  UNL1        0.0000
     57 O           6.6927    4.7561    0.2948 O.3     1  UNL1        0.0000
     58 O          10.1760    4.3116    4.5895 O.2     1  UNL1        0.0000
@<TRIPOS>BOND
     1    52    53    1
     2    52     2    1
     3     4     2    1
     4     2     3    1
     5     2     5    1
     6     8     7    1
     7     6     5    1
     8     5     7    1
     9     5    54    1
    10     7    55    1
    11     7     9    1
    12    55    12    1
    13    54    11    1
    14    57    11    1
    15    57    26    1
    16    28    26    1
    17    14    13    1
    18    10     9    1
    19    16    13    1
    20     9    11    1
    21     9    56    1
    22    11    21    1
    23    26    27    1
    24    26    25    1
    25    13    12    1
    26    13    15    1
    27    12    56    1
    28    12    17    1
    29    39    38    1
    30    37    36    1
    31    18    17    1
    32    20    17    1
    33    17    19    1
    34    41    40    1
    35    21    25    1
    36    21    22    1
    37    38    36   ar
    38    38    29   ar
    39    50    48    1
    40    36    34   ar
    41    25    24    1
    42    40    43    1
    43    40    42    1
    44    40     1    1
    45    22    29    1
    46    22    23    1
    47    29    30   ar
    48    48    49    1
    49    48    51    1
    50    48     1    1
    51    34    35    1
    52    34    32   ar
    53    24    23    1
    54    24     1    1
    55    23    58    2
    56     1    44    1
    57    30    32   ar
    58    30    31    1
    59    32    33    1
    60    44    45    1
    61    44    46    1
    62    44    47    1
