@<TRIPOS>MOLECULE
21,22,24,25
 58 62 0 0 0
SMALL
GASTEIGER

@<TRIPOS>ATOM
      1 SI          6.5503    4.1334    1.3196 Si      1  UNL1        0.0000
      2 C           6.1993    2.5614    9.3295 C.3     1  UNL1        0.0000
      3 H           5.9106    3.4698    8.7956 H       1  UNL1        0.0000
      4 H           5.3198    1.9093    9.4099 H       1  UNL1        0.0000
      5 C           7.2806    1.8298    8.5178 C.3     1  UNL1        0.0000
      6 H           7.5420    0.8743    8.9857 H       1  UNL1        0.0000
      7 C           8.5393    2.6991    8.3475 C.3     1  UNL1        0.0000
      8 H           8.5159    3.5486    9.0395 H       1  UNL1        0.0000
      9 C           8.5306    3.1085    6.8624 C.3     1  UNL1        0.0000
     10 H           8.5577    4.1946    6.7056 H       1  UNL1        0.0000
     11 C           7.1848    2.5459    6.3341 C.3     1  UNL1        0.0000
     12 C          10.5534    2.2249    7.3803 C.3     1  UNL1        0.0000
     13 C          11.4411    3.4498    7.6397 C.3     1  UNL1        0.0000
     14 H          10.8319    4.3223    7.8623 H       1  UNL1        0.0000
     15 H          12.0413    3.6508    6.7573 H       1  UNL1        0.0000
     16 H          12.0902    3.2501    8.4869 H       1  UNL1        0.0000
     17 C          11.3928    0.9978    7.0605 C.3     1  UNL1        0.0000
     18 H          12.1234    0.8439    7.8479 H       1  UNL1        0.0000
     19 H          11.8943    1.1469    6.1099 H       1  UNL1        0.0000
     20 H          10.7495    0.1271    6.9879 H       1  UNL1        0.0000
     21 C           7.2092    2.1290    4.8927 C.3     1  UNL1        0.0000
     22 C           7.9230    1.2617    4.0074 C.3     1  UNL1        0.0000
     23 C           7.9340    1.9633    2.6749 C.2     1  UNL1        0.0000
     24 C           6.7919    2.9156    2.7462 C.3     1  UNL1        0.0000
     25 C           6.5182    3.1150    4.1331 C.3     1  UNL1        0.0000
     26 C           6.0481    4.1842    5.0743 C.3     1  UNL1        0.0000
     27 H           6.6840    5.0789    4.9732 H       1  UNL1        0.0000
     28 H           5.0012    4.4799    4.9779 H       1  UNL1        0.0000
     29 C           8.8463    0.1891    4.4006 C.ar    1  UNL1        0.0000
     30 C           8.5626   -0.6074    5.5119 C.ar    1  UNL1        0.0000
     31 H           7.6813   -0.4031    6.1041 H       1  UNL1        0.0000
     32 C           9.3926   -1.6583    5.8501 C.ar    1  UNL1        0.0000
     33 H           9.1566   -2.2735    6.7068 H       1  UNL1        0.0000
     34 C          10.5197   -1.9310    5.0895 C.ar    1  UNL1        0.0000
     35 H          11.1626   -2.7584    5.3515 H       1  UNL1        0.0000
     36 C          10.8133   -1.1386    3.9933 C.ar    1  UNL1        0.0000
     37 H          11.6908   -1.3449    3.3982 H       1  UNL1        0.0000
     38 C           9.9845   -0.0876    3.6450 C.ar    1  UNL1        0.0000
     39 H          10.2060    0.5161    2.7796 H       1  UNL1        0.0000
     40 C           8.1576    5.1497    1.1911 C.3     1  UNL1        0.0000
     41 H           9.0066    4.4904    1.0396 H       1  UNL1        0.0000
     42 H           8.3445    5.7313    2.0901 H       1  UNL1        0.0000
     43 H           8.1168    5.8393    0.3540 H       1  UNL1        0.0000
     44 C           5.0693    5.2621    1.7404 C.3     1  UNL1        0.0000
     45 H           4.8429    5.9091    0.9002 H       1  UNL1        0.0000
     46 H           5.2738    5.8990    2.5955 H       1  UNL1        0.0000
     47 H           4.1732    4.6896    1.9601 H       1  UNL1        0.0000
     48 C           6.2032    3.1128   -0.2492 C.3     1  UNL1        0.0000
     49 H           7.0175    2.4169   -0.4289 H       1  UNL1        0.0000
     50 H           6.1063    3.7458   -1.1257 H       1  UNL1        0.0000
     51 H           5.2871    2.5335   -0.1544 H       1  UNL1        0.0000
     52 O           6.6604    2.9662   10.5899 O.3     1  UNL1        0.0000
     53 H           6.9238    2.1889   11.0962 H       1  UNL1        0.0000
     54 O           6.8086    1.5343    7.2095 O.3     1  UNL1        0.0000
     55 O           9.7267    1.9610    8.5023 O.3     1  UNL1        0.0000
     56 O           9.6532    2.4833    6.3092 O.3     1  UNL1        0.0000
     57 O           6.2196    3.6116    6.3692 O.3     1  UNL1        0.0000
     58 O           8.6679    1.7900    1.7190 O.2     1  UNL1        0.0000
@<TRIPOS>BOND
     1    50    48    1
     2    49    48    1
     3    48    51    1
     4    48     1    1
     5    43    40    1
     6    45    44    1
     7    41    40    1
     8    40     1    1
     9    40    42    1
    10     1    44    1
    11     1    24    1
    12    58    23    2
    13    44    47    1
    14    44    46    1
    15    23    24    1
    16    23    22    1
    17    24    25    1
    18    39    38    1
    19    37    36    1
    20    38    36   ar
    21    38    29   ar
    22    36    34   ar
    23    22    29    1
    24    22    21    1
    25    25    21    1
    26    25    26    1
    27    29    30   ar
    28    21    11    1
    29    27    26    1
    30    28    26    1
    31    26    57    1
    32    34    35    1
    33    34    32   ar
    34    30    32   ar
    35    30    31    1
    36    32    33    1
    37    19    17    1
    38    56     9    1
    39    56    12    1
    40    11    57    1
    41    11     9    1
    42    11    54    1
    43    10     9    1
    44    15    13    1
    45     9     7    1
    46    20    17    1
    47    17    12    1
    48    17    18    1
    49    54     5    1
    50    12    13    1
    51    12    55    1
    52    13    14    1
    53    13    16    1
    54     7    55    1
    55     7     5    1
    56     7     8    1
    57     5     6    1
    58     5     2    1
    59     3     2    1
    60     2     4    1
    61     2    52    1
    62    52    53    1
