@<TRIPOS>MOLECULE
1,4,6,8
 10 9 0 0 0
SMALL
GASTEIGER

@<TRIPOS>ATOM
      1 C           5.5688    1.8636   16.4837 C.3     1  UNL1       -0.0313
      2 H           6.3110    2.4742   17.0336 H       1  UNL1        0.0310
      3 H           5.4053    0.9211   17.0217 H       1  UNL1        0.0310
      4 C           4.2982    2.6078   16.2746 C.2     1  UNL1       -0.0876
      5 H           3.3746    2.1809   16.6712 H       1  UNL1        0.0569
      6 C           4.2293    3.7684   15.5609 C.2     1  UNL1       -0.0876
      7 H           3.2515    4.2303   15.4048 H       1  UNL1        0.0569
      8 C           5.4115    4.3913   14.9068 C.3     1  UNL1       -0.0313
      9 H           6.1981    4.6383   15.6477 H       1  UNL1        0.0310
     10 H           5.1388    5.3027   14.3608 H       1  UNL1        0.0310
@<TRIPOS>BOND
     1    10     8    1
     2     8     6    1
     3     8     9    1
     4     7     6    1
     5     6     4    2
     6     4     1    1
     7     4     5    1
     8     1     3    1
     9     1     2    1
