@<TRIPOS>MOLECULE
1,3,5,7
 30 31 0 0 0
SMALL
GASTEIGER

@<TRIPOS>ATOM
      1 C           3.0803    4.8199    6.0759 C.3     1  UNL1        0.0124
      2 H           2.0550    4.6429    5.7216 H       1  UNL1        0.0400
      3 C           3.5472    6.1887    5.9707 C.2     1  UNL1       -0.0791
      4 H           4.5609    6.3780    5.6243 H       1  UNL1        0.0575
      5 C           2.8084    7.2690    6.4142 C.2     1  UNL1       -0.0791
      6 H           3.2910    8.2439    6.4098 H       1  UNL1        0.0575
      7 C           1.5176    7.1404    7.0468 C.3     1  UNL1        0.0124
      8 H           0.8041    6.4605    6.5590 H       1  UNL1        0.0400
      9 C           3.9483    3.6710    5.8630 C.ar    1  UNL1       -0.0397
     10 C           3.3987    2.3886    6.0324 C.ar    1  UNL1       -0.0580
     11 H           2.3500    2.3060    6.2912 H       1  UNL1        0.0620
     12 C           4.1657    1.2513    5.8971 C.ar    1  UNL1       -0.0615
     13 H           3.7154    0.2790    6.0392 H       1  UNL1        0.0618
     14 C           5.5125    1.3492    5.5790 C.ar    1  UNL1       -0.0617
     15 H           6.1155    0.4600    5.4730 H       1  UNL1        0.0618
     16 C           6.0704    2.6017    5.3878 C.ar    1  UNL1       -0.0615
     17 H           7.1150    2.6895    5.1224 H       1  UNL1        0.0618
     18 C           5.3055    3.7447    5.5237 C.ar    1  UNL1       -0.0580
     19 H           5.7702    4.7017    5.3374 H       1  UNL1        0.0620
     20 C           0.8561    8.2551    7.7142 C.ar    1  UNL1       -0.0397
     21 C          -0.3216    7.9858    8.4280 C.ar    1  UNL1       -0.0580
     22 H          -0.6733    6.9618    8.4749 H       1  UNL1        0.0620
     23 C          -1.0178    8.9869    9.0699 C.ar    1  UNL1       -0.0615
     24 H          -1.9216    8.7509    9.6143 H       1  UNL1        0.0618
     25 C          -0.5683   10.2977    9.0128 C.ar    1  UNL1       -0.0617
     26 H          -1.1187   11.0859    9.5049 H       1  UNL1        0.0618
     27 C           0.5947   10.5830    8.3189 C.ar    1  UNL1       -0.0615
     28 H           0.9523   11.6021    8.2642 H       1  UNL1        0.0618
     29 C           1.3030    9.5805    7.6847 C.ar    1  UNL1       -0.0580
     30 H           2.1973    9.8448    7.1399 H       1  UNL1        0.0620
@<TRIPOS>BOND
     1    17    16    1
     2    19    18    1
     3    16    18   ar
     4    16    14   ar
     5    15    14    1
     6    18     9   ar
     7    14    12   ar
     8     4     3    1
     9     2     1    1
    10     9    10   ar
    11     9     1    1
    12    12    10   ar
    13    12    13    1
    14     3     1    1
    15     3     5    2
    16    10    11    1
    17     6     5    1
    18     5     7    1
    19     8     7    1
    20     7    20    1
    21    30    29    1
    22    29    20   ar
    23    29    27   ar
    24    20    21   ar
    25    28    27    1
    26    27    25   ar
    27    21    22    1
    28    21    23   ar
    29    25    23   ar
    30    25    26    1
    31    23    24    1
