@<TRIPOS>MOLECULE
1,3,12,14
 15 16 0 0 0
SMALL
GASTEIGER

@<TRIPOS>ATOM
      1 C           5.2964    3.5735   15.9900 C.3     1  UNL1       -0.0312
      2 H           4.4171    3.4034   16.5939 H       1  UNL1        0.0309
      3 C           5.2989    3.6040   14.5813 C.3     1  UNL1       -0.0312
      4 H           4.4222    3.4647   13.9657 H       1  UNL1        0.0309
      5 C           6.6701    3.0770   14.1589 C.3     1  UNL1       -0.0340
      6 H           6.7760    2.7512   13.1266 H       1  UNL1        0.0307
      7 C           6.9454    2.0395   15.2576 C.3     1  UNL1       -0.0463
      8 H           6.2456    1.2040   15.2425 H       1  UNL1        0.0271
      9 H           7.9710    1.6656   15.2507 H       1  UNL1        0.0271
     10 C           6.6701    3.0352   16.3943 C.3     1  UNL1       -0.0340
     11 H           6.7738    2.6673   17.4126 H       1  UNL1        0.0307
     12 C           7.5755    4.1975   15.9853 C.3     1  UNL1       -0.0312
     13 H           8.3194    4.6382   16.6340 H       1  UNL1        0.0309
     14 C           7.5737    4.2191   14.6117 C.3     1  UNL1       -0.0312
     15 H           8.3077    4.6778   13.9687 H       1  UNL1        0.0309
@<TRIPOS>BOND
     1     6     5    1
     2     4     3    1
     3    15    14    1
     4     5     3    1
     5     5    14    1
     6     5     7    1
     7     3     1    1
     8    14    12    1
     9     8     7    1
    10     9     7    1
    11     7    10    1
    12    12    10    1
    13    12    13    1
    14     1    10    1
    15     1     2    1
    16    10    11    1
