@<TRIPOS>MOLECULE
2,3,5,6
 72 73 0 0 0
SMALL
GASTEIGER

@<TRIPOS>ATOM
      1 B           6.8006    3.2461    4.3992 B       1  UNL1        0.0000
      2 C           6.0102    2.1202    5.1151 C.3     1  UNL1        0.0000
      3 C           6.5278    0.8237    5.2230 C.2     1  UNL1        0.0000
      4 B           7.9373    0.4704    4.6917 B       1  UNL1        0.0000
      5 C           8.8427    1.6636    4.2646 C.3     1  UNL1        0.0000
      6 C           8.3154    2.9679    4.1467 C.3     1  UNL1        0.0000
      7 C           4.5743    2.3587    5.5044 C.3     1  UNL1        0.0000
      8 H           3.9192    1.7497    4.8791 H       1  UNL1        0.0000
      9 H           4.3122    3.4018    5.3595 H       1  UNL1        0.0000
     10 H           4.3834    2.0870    6.5416 H       1  UNL1        0.0000
     11 C           5.6201   -0.2744    5.7188 C.3     1  UNL1        0.0000
     12 H           5.2309   -0.0611    6.7133 H       1  UNL1        0.0000
     13 H           6.1403   -1.2267    5.7432 H       1  UNL1        0.0000
     14 H           4.7660   -0.3736    5.0473 H       1  UNL1        0.0000
     15 C          10.2554    1.4071    3.8004 C.3     1  UNL1        0.0000
     16 H          10.3037    1.5235    2.7166 H       1  UNL1        0.0000
     17 H          10.5637    0.3937    4.0445 H       1  UNL1        0.0000
     18 H          10.9692    2.1042    4.2364 H       1  UNL1        0.0000
     19 C           9.1855    4.0564    3.5693 C.3     1  UNL1        0.0000
     20 H          10.1078    4.1916    4.1333 H       1  UNL1        0.0000
     21 H           8.6423    4.9962    3.5524 H       1  UNL1        0.0000
     22 H           9.4643    3.8011    2.5457 H       1  UNL1        0.0000
     23 N           6.1496    4.4751    3.9369 N.3     1  UNL1        0.0000
     24 SI          5.6675    4.4375    2.2500 Si      1  UNL1        0.0000
     25 C           6.3380    5.9585    1.3139 C.3     1  UNL1        0.0000
     26 H           5.9834    6.8844    1.7533 H       1  UNL1        0.0000
     27 H           6.0088    5.9414    0.2799 H       1  UNL1        0.0000
     28 H           7.4230    5.9890    1.3110 H       1  UNL1        0.0000
     29 C           3.7683    4.3487    2.0545 C.3     1  UNL1        0.0000
     30 H           3.3243    3.6648    2.7705 H       1  UNL1        0.0000
     31 H           3.5068    3.9972    1.0610 H       1  UNL1        0.0000
     32 H           3.2979    5.3157    2.1876 H       1  UNL1        0.0000
     33 C           6.3549    2.8540    1.4416 C.3     1  UNL1        0.0000
     34 H           7.4372    2.8160    1.4699 H       1  UNL1        0.0000
     35 H           6.0518    2.7882    0.4015 H       1  UNL1        0.0000
     36 H           5.9831    1.9708    1.9503 H       1  UNL1        0.0000
     37 SI          5.8627    5.8517    4.9751 Si      1  UNL1        0.0000
     38 C           4.2459    6.7423    4.4978 C.3     1  UNL1        0.0000
     39 H           4.2916    7.1538    3.4963 H       1  UNL1        0.0000
     40 H           4.0671    7.5679    5.1796 H       1  UNL1        0.0000
     41 H           3.3836    6.0863    4.5477 H       1  UNL1        0.0000
     42 C           7.2762    7.1313    4.8106 C.3     1  UNL1        0.0000
     43 H           8.1983    6.7891    5.2690 H       1  UNL1        0.0000
     44 H           7.0011    8.0612    5.2997 H       1  UNL1        0.0000
     45 H           7.4906    7.3635    3.7719 H       1  UNL1        0.0000
     46 C           5.6708    5.3645    6.8119 C.3     1  UNL1        0.0000
     47 H           4.6286    5.3641    7.1155 H       1  UNL1        0.0000
     48 H           6.1905    6.0730    7.4488 H       1  UNL1        0.0000
     49 H           6.0777    4.3797    7.0231 H       1  UNL1        0.0000
     50 C           8.4181   -1.0255    4.4729 C.ar    1  UNL1        0.0000
     51 C           8.5114   -1.4888    3.1513 C.ar    1  UNL1        0.0000
     52 C           8.9821   -2.7711    2.8719 C.ar    1  UNL1        0.0000
     53 C           9.3589   -3.5923    3.9212 C.ar    1  UNL1        0.0000
     54 H           9.7365   -4.5835    3.7087 H       1  UNL1        0.0000
     55 C           9.2497   -3.1774    5.2372 C.ar    1  UNL1        0.0000
     56 C           8.7661   -1.8963    5.5152 C.ar    1  UNL1        0.0000
     57 C           8.0765   -0.6227    2.0032 C.3     1  UNL1        0.0000
     58 H           8.9079   -0.4389    1.3226 H       1  UNL1        0.0000
     59 H           7.6929    0.3294    2.3540 H       1  UNL1        0.0000
     60 H           7.2924   -1.1209    1.4331 H       1  UNL1        0.0000
     61 C           9.0871   -3.2678    1.4606 C.3     1  UNL1        0.0000
     62 H           8.1075   -3.2846    0.9830 H       1  UNL1        0.0000
     63 H           9.4967   -4.2748    1.4397 H       1  UNL1        0.0000
     64 H           9.7327   -2.6201    0.8681 H       1  UNL1        0.0000
     65 C           9.6510   -4.1094    6.3419 C.3     1  UNL1        0.0000
     66 H          10.4097   -3.6541    6.9776 H       1  UNL1        0.0000
     67 H          10.0523   -5.0338    5.9335 H       1  UNL1        0.0000
     68 H           8.7961   -4.3563    6.9718 H       1  UNL1        0.0000
     69 C           8.6386   -1.4981    6.9582 C.3     1  UNL1        0.0000
     70 H           8.0489   -2.2356    7.5023 H       1  UNL1        0.0000
     71 H           8.1645   -0.5267    7.0677 H       1  UNL1        0.0000
     72 H           9.6204   -1.4550    7.4302 H       1  UNL1        0.0000
@<TRIPOS>BOND
     1    27    25    1
     2    35    33    1
     3    64    61    1
     4    62    61    1
     5    31    29    1
     6    28    25    1
     7    25    26    1
     8    25    24    1
     9    58    57    1
    10    60    57    1
    11    63    61    1
    12    33    34    1
    13    33    36    1
    14    33    24    1
    15    61    52    1
    16    57    59    1
    17    57    51    1
    18    29    32    1
    19    29    24    1
    20    29    30    1
    21    24    23    1
    22    22    19    1
    23    16    15    1
    24    52    51   ar
    25    52    53   ar
    26    51    50   ar
    27    39    38    1
    28    21    19    1
    29    19    20    1
    30    19     6    1
    31    54    53    1
    32    45    42    1
    33    15    17    1
    34    15    18    1
    35    15     5    1
    36    53    55   ar
    37    23     1    1
    38    23    37    1
    39     6     5    1
    40     6     1    1
    41     5     4    1
    42     1     2    1
    43    50     4    1
    44    50    56   ar
    45    38    41    1
    46    38    37    1
    47    38    40    1
    48     4     3    2
    49    42    37    1
    50    42    43    1
    51    42    44    1
    52     8     7    1
    53    37    46    1
    54    14    11    1
    55     2     3    1
    56     2     7    1
    57     3    11    1
    58    55    56   ar
    59    55    65    1
    60     9     7    1
    61     7    10    1
    62    56    69    1
    63    11    13    1
    64    11    12    1
    65    67    65    1
    66    65    68    1
    67    65    66    1
    68    46    49    1
    69    46    47    1
    70    46    48    1
    71    69    71    1
    72    69    72    1
    73    69    70    1
