@<TRIPOS>MOLECULE
3,4,6,7
 100 105 0 0 0
SMALL
GASTEIGER

@<TRIPOS>ATOM
      1 N           1.9673    4.7964   10.8582 N.3     1  UNL1        0.0000
      2 B           1.8863    5.5034    9.5886 B       1  UNL1        0.0000
      3 C           1.3256    6.9581    9.4052 C.3     1  UNL1        0.0000
      4 C           1.8083    7.8133    8.3894 C.3     1  UNL1        0.0000
      5 B           2.7596    7.2893    7.2810 B       1  UNL1        0.0000
      6 C           2.9776    5.7667    7.2457 C.2     1  UNL1        0.0000
      7 C           2.4619    4.9248    8.2496 C.3     1  UNL1        0.0000
      8 SI          3.5431    4.8843   11.6424 Si      1  UNL1        0.0000
      9 C           4.4005    3.1767   11.6907 C.3     1  UNL1        0.0000
     10 H           4.4653    2.7987   12.7058 H       1  UNL1        0.0000
     11 H           5.4146    3.2332   11.3079 H       1  UNL1        0.0000
     12 H           3.8666    2.4431   11.0960 H       1  UNL1        0.0000
     13 C           3.3950    5.5834   13.4206 C.3     1  UNL1        0.0000
     14 H           3.9908    6.4841   13.5380 H       1  UNL1        0.0000
     15 H           3.7593    4.8658   14.1482 H       1  UNL1        0.0000
     16 H           2.3727    5.8275   13.6876 H       1  UNL1        0.0000
     17 C           4.6334    6.1224   10.6839 C.3     1  UNL1        0.0000
     18 H           4.7211    5.8665    9.6341 H       1  UNL1        0.0000
     19 H           5.6351    6.1560   11.1019 H       1  UNL1        0.0000
     20 H           4.2251    7.1268   10.7396 H       1  UNL1        0.0000
     21 SI          0.6669    3.8448   11.5566 Si      1  UNL1        0.0000
     22 C           1.2042    3.0293   13.1927 C.3     1  UNL1        0.0000
     23 H           2.0891    2.4169   13.0724 H       1  UNL1        0.0000
     24 H           0.4072    2.3813   13.5444 H       1  UNL1        0.0000
     25 H           1.4016    3.7478   13.9779 H       1  UNL1        0.0000
     26 C           0.1821    2.3752   10.4394 C.3     1  UNL1        0.0000
     27 H          -0.3170    2.6806    9.5286 H       1  UNL1        0.0000
     28 H          -0.4983    1.7173   10.9718 H       1  UNL1        0.0000
     29 H           1.0497    1.7880   10.1553 H       1  UNL1        0.0000
     30 C          -0.8787    4.8830   11.9753 C.3     1  UNL1        0.0000
     31 H          -0.6995    5.5434   12.8180 H       1  UNL1        0.0000
     32 H          -1.7002    4.2261   12.2446 H       1  UNL1        0.0000
     33 H          -1.2144    5.5025   11.1525 H       1  UNL1        0.0000
     34 C           3.4932    8.2902    6.2960 C.ar    1  UNL1        0.0000
     35 C           4.4346    9.1823    6.8324 C.ar    1  UNL1        0.0000
     36 C           5.0658   10.1292    6.0278 C.ar    1  UNL1        0.0000
     37 C           4.7776   10.1617    4.6743 C.ar    1  UNL1        0.0000
     38 H           5.2679   10.8928    4.0457 H       1  UNL1        0.0000
     39 C           3.8847    9.2698    4.1064 C.ar    1  UNL1        0.0000
     40 C           3.2371    8.3368    4.9185 C.ar    1  UNL1        0.0000
     41 C           4.8169    9.1194    8.2836 C.3     1  UNL1        0.0000
     42 H           4.3292    8.2884    8.7813 H       1  UNL1        0.0000
     43 H           4.5400   10.0427    8.7924 H       1  UNL1        0.0000
     44 H           5.8956    8.9971    8.3850 H       1  UNL1        0.0000
     45 C           6.0470   11.1050    6.6057 C.3     1  UNL1        0.0000
     46 H           6.3947   11.7950    5.8407 H       1  UNL1        0.0000
     47 H           6.9125   10.5878    7.0201 H       1  UNL1        0.0000
     48 H           5.5882   11.6805    7.4091 H       1  UNL1        0.0000
     49 C           3.6256    9.3212    2.6300 C.3     1  UNL1        0.0000
     50 H           4.2463   10.0802    2.1599 H       1  UNL1        0.0000
     51 H           2.5814    9.5581    2.4259 H       1  UNL1        0.0000
     52 H           3.8438    8.3597    2.1664 H       1  UNL1        0.0000
     53 C           2.2624    7.4032    4.2624 C.3     1  UNL1        0.0000
     54 H           1.5120    7.9626    3.7036 H       1  UNL1        0.0000
     55 H           1.7528    6.7794    4.9908 H       1  UNL1        0.0000
     56 H           2.7809    6.7519    3.5590 H       1  UNL1        0.0000
     57 C           0.4413    7.5639   10.4281 C.ar    1  UNL1        0.0000
     58 C           0.8754    7.6994   11.7432 C.ar    1  UNL1        0.0000
     59 H           1.8577    7.3440   12.0082 H       1  UNL1        0.0000
     60 C           0.0669    8.2982   12.6918 C.ar    1  UNL1        0.0000
     61 H           0.4197    8.4026   13.7081 H       1  UNL1        0.0000
     62 C          -1.1898    8.7643   12.3450 C.ar    1  UNL1        0.0000
     63 H          -1.8223    9.2279   13.0873 H       1  UNL1        0.0000
     64 C          -1.6323    8.6316   11.0394 C.ar    1  UNL1        0.0000
     65 H          -2.6115    8.9922   10.7603 H       1  UNL1        0.0000
     66 C          -0.8217    8.0397   10.0896 C.ar    1  UNL1        0.0000
     67 H          -1.1679    7.9336    9.0684 H       1  UNL1        0.0000
     68 C           1.5545    9.2686    8.4464 C.ar    1  UNL1        0.0000
     69 C           1.8402    9.9971    9.5998 C.ar    1  UNL1        0.0000
     70 H           2.2129    9.4893   10.4760 H       1  UNL1        0.0000
     71 C           1.6807   11.3698    9.6286 C.ar    1  UNL1        0.0000
     72 H           1.9077   11.9140   10.5342 H       1  UNL1        0.0000
     73 C           1.2386   12.0462    8.5052 C.ar    1  UNL1        0.0000
     74 H           1.1107   13.1183    8.5302 H       1  UNL1        0.0000
     75 C           0.9745   11.3375    7.3453 C.ar    1  UNL1        0.0000
     76 H           0.6441   11.8568    6.4577 H       1  UNL1        0.0000
     77 C           1.1388    9.9665    7.3145 C.ar    1  UNL1        0.0000
     78 H           0.9427    9.4255    6.4021 H       1  UNL1        0.0000
     79 C           3.8394    5.1908    6.1899 C.ar    1  UNL1        0.0000
     80 C           5.1538    5.6400    6.0875 C.ar    1  UNL1        0.0000
     81 H           5.5096    6.3927    6.7746 H       1  UNL1        0.0000
     82 C           6.0008    5.1266    5.1238 C.ar    1  UNL1        0.0000
     83 H           7.0185    5.4835    5.0595 H       1  UNL1        0.0000
     84 C           5.5470    4.1639    4.2384 C.ar    1  UNL1        0.0000
     85 H           6.2073    3.7661    3.4818 H       1  UNL1        0.0000
     86 C           4.2388    3.7189    4.3242 C.ar    1  UNL1        0.0000
     87 H           3.8737    2.9737    3.6323 H       1  UNL1        0.0000
     88 C           3.3933    4.2276    5.2918 C.ar    1  UNL1        0.0000
     89 H           2.3702    3.8863    5.3439 H       1  UNL1        0.0000
     90 C           2.7707    3.4804    8.1181 C.ar    1  UNL1        0.0000
     91 C           4.0507    3.0102    8.3923 C.ar    1  UNL1        0.0000
     92 H           4.8110    3.7015    8.7207 H       1  UNL1        0.0000
     93 C           4.3573    1.6710    8.2359 C.ar    1  UNL1        0.0000
     94 H           5.3562    1.3221    8.4536 H       1  UNL1        0.0000
     95 C           3.3941    0.7802    7.7946 C.ar    1  UNL1        0.0000
     96 H           3.6357   -0.2648    7.6687 H       1  UNL1        0.0000
     97 C           2.1208    1.2402    7.5048 C.ar    1  UNL1        0.0000
     98 H           1.3652    0.5554    7.1483 H       1  UNL1        0.0000
     99 C           1.8147    2.5789    7.6655 C.ar    1  UNL1        0.0000
    100 H           0.8245    2.9450    7.4219 H       1  UNL1        0.0000
@<TRIPOS>BOND
     1    50    49    1
     2    52    49    1
     3    51    49    1
     4    49    39    1
     5    85    84    1
     6    56    53    1
     7    87    86    1
     8    54    53    1
     9    38    37    1
    10    39    37   ar
    11    39    40   ar
    12    84    86   ar
    13    84    82   ar
    14    53    40    1
    15    53    55    1
    16    86    88   ar
    17    37    36   ar
    18    40    34   ar
    19    83    82    1
    20    82    80   ar
    21    88    89    1
    22    88    79   ar
    23    46    45    1
    24    36    45    1
    25    36    35   ar
    26    80    79   ar
    27    80    81    1
    28    79     6    1
    29    34    35   ar
    30    34     5    1
    31    78    77    1
    32    76    75    1
    33    45    47    1
    34    45    48    1
    35    35    41    1
    36    98    97    1
    37     6     5    2
    38     6     7    1
    39     5     4    1
    40    77    75   ar
    41    77    68   ar
    42    75    73   ar
    43   100    99    1
    44    97    99   ar
    45    97    95   ar
    46    99    90   ar
    47    96    95    1
    48    95    93   ar
    49    90     7    1
    50    90    91   ar
    51    93    91   ar
    52    93    94    1
    53     7     2    1
    54    41    44    1
    55    41    42    1
    56    41    43    1
    57     4    68    1
    58     4     3    1
    59    91    92    1
    60    68    69   ar
    61    73    74    1
    62    73    71   ar
    63    67    66    1
    64     3     2    1
    65     3    57    1
    66    27    26    1
    67     2     1    1
    68    69    71   ar
    69    69    70    1
    70    71    72    1
    71    18    17    1
    72    66    57   ar
    73    66    64   ar
    74    29    26    1
    75    57    58   ar
    76    26    28    1
    77    26    21    1
    78    17    20    1
    79    17    19    1
    80    17     8    1
    81    65    64    1
    82     1    21    1
    83     1     8    1
    84    64    62   ar
    85    12     9    1
    86    33    30    1
    87    11     9    1
    88    21    30    1
    89    21    22    1
    90     8     9    1
    91     8    13    1
    92     9    10    1
    93    58    59    1
    94    58    60   ar
    95    30    32    1
    96    30    31    1
    97    62    60   ar
    98    62    63    1
    99    60    61    1
   100    23    22    1
   101    22    24    1
   102    22    25    1
   103    13    14    1
   104    13    16    1
   105    13    15    1
