@<TRIPOS>MOLECULE
2,3,4,6
 30 30 0 0 0
SMALL
GASTEIGER

@<TRIPOS>ATOM
      1 SI         11.6489    1.9259    6.1658 Si      1  UNL1        0.0000
      2 C          13.1824    1.5695    5.1845 C.3     1  UNL1        0.0000
      3 C          14.4447    1.7321    5.1672 C.3     1  UNL1        0.0000
      4 C          15.6821    1.6220    4.6015 C.3     1  UNL1        0.0000
      5 H          16.4687    1.0664    5.1042 H       1  UNL1        0.0000
      6 C          15.8970    2.2295    3.2710 C.3     1  UNL1        0.0000
      7 H          15.6480    3.3009    3.2208 H       1  UNL1        0.0000
      8 C          17.0267    1.8563    2.4433 C.ar    1  UNL1        0.0000
      9 C          17.3279    2.6206    1.2983 C.ar    1  UNL1        0.0000
     10 H          16.7504    3.5138    1.0940 H       1  UNL1        0.0000
     11 C          18.3457    2.2679    0.4395 C.ar    1  UNL1        0.0000
     12 H          18.5464    2.8769   -0.4311 H       1  UNL1        0.0000
     13 C          19.1208    1.1447    0.6892 C.ar    1  UNL1        0.0000
     14 H          19.9203    0.8703    0.0179 H       1  UNL1        0.0000
     15 C          18.8608    0.3884    1.8211 C.ar    1  UNL1        0.0000
     16 H          19.4672   -0.4808    2.0361 H       1  UNL1        0.0000
     17 C          17.8377    0.7305    2.6816 C.ar    1  UNL1        0.0000
     18 H          17.6739    0.1198    3.5581 H       1  UNL1        0.0000
     19 C          10.3152    0.7607    5.4089 C.3     1  UNL1        0.0000
     20 H          10.6808    0.2769    4.5017 H       1  UNL1        0.0000
     21 H           9.4029    1.2948    5.1589 H       1  UNL1        0.0000
     22 H          10.0411   -0.0245    6.1072 H       1  UNL1        0.0000
     23 C          11.9101    1.4597    8.0002 C.3     1  UNL1        0.0000
     24 H          12.2790    0.4435    8.0961 H       1  UNL1        0.0000
     25 H          10.9810    1.5282    8.5577 H       1  UNL1        0.0000
     26 H          12.6314    2.1159    8.4762 H       1  UNL1        0.0000
     27 C          11.0304    3.7391    6.0876 C.3     1  UNL1        0.0000
     28 H          11.7680    4.4210    6.5003 H       1  UNL1        0.0000
     29 H          10.1146    3.8631    6.6583 H       1  UNL1        0.0000
     30 H          10.8260    4.0552    5.0690 H       1  UNL1        0.0000
@<TRIPOS>BOND
     1    12    11    1
     2    14    13    1
     3    11    13   ar
     4    11     9   ar
     5    13    15   ar
     6    10     9    1
     7     9     8   ar
     8    15    16    1
     9    15    17   ar
    10     8    17   ar
    11     8     6    1
    12    17    18    1
    13     7     6    1
    14     6     4    1
    15    20    19    1
    16     4     5    1
    17     4     3    1
    18    30    27    1
    19    21    19    1
    20     3     2    1
    21     2     1    1
    22    19    22    1
    23    19     1    1
    24    27     1    1
    25    27    28    1
    26    27    29    1
    27     1    23    1
    28    23    24    1
    29    23    26    1
    30    23    25    1
