@<TRIPOS>MOLECULE
2,3,4,6
 32 31 0 0 0
SMALL
GASTEIGER

@<TRIPOS>ATOM
      1 SI          9.9576   19.7900    8.4602 Si      1  UNL1        0.0000
      2 C           9.9711   17.9380    8.5389 C.3     1  UNL1        0.0000
      3 C          10.5853   16.9533    9.0617 C.3     1  UNL1        0.0000
      4 C          10.8028   15.6143    9.2413 C.3     1  UNL1        0.0000
      5 H          10.6967   15.1780   10.2297 H       1  UNL1        0.0000
      6 C          11.0739   14.7910    8.0489 C.3     1  UNL1        0.0000
      7 H          11.8832   15.2291    7.4353 H       1  UNL1        0.0000
      8 C          11.3124   13.2851    8.1972 C.3     1  UNL1        0.0000
      9 C          10.7750   12.6174    6.9166 C.3     1  UNL1        0.0000
     10 H          10.8244   11.5323    6.9961 H       1  UNL1        0.0000
     11 H          11.3694   12.9165    6.0546 H       1  UNL1        0.0000
     12 H           9.7336   12.9158    6.7426 H       1  UNL1        0.0000
     13 C          12.8153   12.9881    8.3236 C.3     1  UNL1        0.0000
     14 H          13.2254   13.4910    9.1969 H       1  UNL1        0.0000
     15 H          13.3546   13.3372    7.4449 H       1  UNL1        0.0000
     16 H          12.9906   11.9188    8.4285 H       1  UNL1        0.0000
     17 C          10.5989   12.6774    9.4099 C.3     1  UNL1        0.0000
     18 H          10.6590   11.5910    9.3682 H       1  UNL1        0.0000
     19 H           9.5505   12.9643    9.4331 H       1  UNL1        0.0000
     20 H          11.0711   12.9944   10.3370 H       1  UNL1        0.0000
     21 C           8.1627   20.2520    7.9450 C.3     1  UNL1        0.0000
     22 H           7.6942   19.4569    7.3658 H       1  UNL1        0.0000
     23 H           8.1344   21.1596    7.3488 H       1  UNL1        0.0000
     24 H           7.5403   20.4228    8.8189 H       1  UNL1        0.0000
     25 C          10.3123   20.5587   10.1746 C.3     1  UNL1        0.0000
     26 H           9.6838   20.1122   10.9386 H       1  UNL1        0.0000
     27 H          10.1225   21.6277   10.1739 H       1  UNL1        0.0000
     28 H          11.3450   20.4052   10.4706 H       1  UNL1        0.0000
     29 C          11.1910   20.5579    7.2085 C.3     1  UNL1        0.0000
     30 H          12.2142   20.2888    7.4539 H       1  UNL1        0.0000
     31 H          11.1272   21.6422    7.2169 H       1  UNL1        0.0000
     32 H          11.0005   20.2276    6.1921 H       1  UNL1        0.0000
@<TRIPOS>BOND
     1    11     9    1
     2    32    29    1
     3    12     9    1
     4     9    10    1
     5     9     8    1
     6    29    31    1
     7    29    30    1
     8    29     1    1
     9    23    21    1
    10    22    21    1
    11     7     6    1
    12    15    13    1
    13    21     1    1
    14    21    24    1
    15     6     8    1
    16     6     4    1
    17     8    13    1
    18     8    17    1
    19    13    16    1
    20    13    14    1
    21     1     2    1
    22     1    25    1
    23     2     3    1
    24     3     4    1
    25     4     5    1
    26    18    17    1
    27    17    19    1
    28    17    20    1
    29    27    25    1
    30    25    28    1
    31    25    26    1
