@<TRIPOS>MOLECULE
1,2,3,4
 10 9 0 0 0
SMALL
GASTEIGER

@<TRIPOS>ATOM
      1 C          -0.4084    4.2986    1.3909 C.3     1  UNL1       -0.0235
      2 C           0.4150    5.1902    2.1431 C.3     1  UNL1       -0.0463
      3 C          -1.6445    3.9543    2.0173 C.3     1  UNL1       -0.0463
      4 C           0.2862    3.2020    0.7961 C.3     1  UNL1       -0.0463
      5 H           1.3717    5.4746    1.7018 H       1  UNL1        0.0271
      6 H          -0.0838    6.0352    2.6235 H       1  UNL1        0.0271
      7 H          -2.2048    4.7636    2.4888 H       1  UNL1        0.0271
      8 H          -2.2952    3.2636    1.4760 H       1  UNL1        0.0271
      9 H          -0.3077    2.4935    0.2162 H       1  UNL1        0.0271
     10 H           1.2427    3.4259    0.3181 H       1  UNL1        0.0271
@<TRIPOS>BOND
     1     9     4    1
     2    10     4    1
     3     4     1    1
     4     1     3    1
     5     1     2    1
     6     8     3    1
     7     5     2    1
     8     3     7    1
     9     2     6    1
