@<TRIPOS>MOLECULE
2,3,4,5
 10 10 0 0 0
SMALL
GASTEIGER

@<TRIPOS>ATOM
      1 C           8.0343    3.8514   13.3796 C.2     1  UNL1       -0.0654
      2 C           8.4545    4.5324   12.2312 C.2     1  UNL1       -0.0763
      3 C           7.5288    5.5639   11.9649 C.3     1  UNL1        0.0054
      4 C           6.5336    5.5187   12.9769 C.2     1  UNL1       -0.0763
      5 C           6.8543    4.4536   13.8439 C.2     1  UNL1       -0.0654
      6 H           8.5898    3.0813   13.8893 H       1  UNL1        0.0615
      7 H           9.3867    4.3759   11.7107 H       1  UNL1        0.0578
      8 H           7.6807    6.3718   11.2617 H       1  UNL1        0.0394
      9 H           5.8117    6.2988   13.1798 H       1  UNL1        0.0578
     10 H           6.3650    4.2345   14.7811 H       1  UNL1        0.0615
@<TRIPOS>BOND
     1     8     3    1
     2     7     2    1
     3     3     2    1
     4     3     4    1
     5     2     1    2
     6     4     9    1
     7     4     5    2
     8     1     5    1
     9     1     6    1
    10     5    10    1
