@<TRIPOS>MOLECULE
7,9,11,13
 43 43 0 0 0
SMALL
GASTEIGER

@<TRIPOS>ATOM
      1 O           9.0511    6.6478    8.3537 O.2     1  UNL1        0.0000
      2 O           8.7643    8.7551    9.0527 O.3     1  UNL1        0.0000
      3 O           6.5540    8.1147   10.3032 O.3     1  UNL1        0.0000
      4 H           5.6828    7.6857   10.3443 H       1  UNL1        0.0000
      5 C           6.8140    5.7343    9.7919 C.3     1  UNL1        0.0000
      6 H           6.9781    5.5058    8.7285 H       1  UNL1        0.0000
      7 C           7.4097    4.6246   10.6343 C.3     1  UNL1        0.0000
      8 H           6.9829    3.6626   10.3626 H       1  UNL1        0.0000
      9 C           8.8068    4.6349   10.9240 C.2     1  UNL1        0.0000
     10 H           9.4195    3.7439   10.8650 H       1  UNL1        0.0000
     11 C           9.3107    5.8602   11.3719 C.2     1  UNL1        0.0000
     12 H          10.3421    5.9895   11.6776 H       1  UNL1        0.0000
     13 C           8.3393    6.9097   11.4088 C.3     1  UNL1        0.0000
     14 H           8.6561    7.8764   11.7928 H       1  UNL1        0.0000
     15 C           7.4862    7.0854   10.1460 C.3     1  UNL1        0.0000
     16 C           8.5085    7.4583    9.0633 C.2     1  UNL1        0.0000
     17 C           9.7378    9.1979    8.1156 C.3     1  UNL1        0.0000
     18 H          10.7154    8.7772    8.3602 H       1  UNL1        0.0000
     19 H           9.7574   10.2819    8.1893 H       1  UNL1        0.0000
     20 H           9.4638    8.8840    7.1067 H       1  UNL1        0.0000
     21 O           5.4402    5.8684   10.0196 O.3     1  UNL1        0.0000
     22 SI          4.2397    4.7682    9.7868 Si      1  UNL1        0.0000
     23 C           4.5987    3.7069    8.2422 C.3     1  UNL1        0.0000
     24 H           4.8441    4.3285    7.3856 H       1  UNL1        0.0000
     25 H           3.7487    3.0915    7.9679 H       1  UNL1        0.0000
     26 H           5.4390    3.0386    8.4083 H       1  UNL1        0.0000
     27 C           4.0399    3.6295   11.3047 C.3     1  UNL1        0.0000
     28 H           4.9513    3.0825   11.5273 H       1  UNL1        0.0000
     29 H           3.2510    2.9009   11.1496 H       1  UNL1        0.0000
     30 H           3.7875    4.1982   12.1944 H       1  UNL1        0.0000
     31 C           2.7050    5.9012    9.5421 C.3     1  UNL1        0.0000
     32 C           2.8834    6.7997    8.3145 C.3     1  UNL1        0.0000
     33 H           2.9832    6.2037    7.4104 H       1  UNL1        0.0000
     34 H           3.7688    7.4229    8.4157 H       1  UNL1        0.0000
     35 H           2.0196    7.4531    8.1958 H       1  UNL1        0.0000
     36 C           2.4749    6.7904   10.7666 C.3     1  UNL1        0.0000
     37 H           3.3324    7.4324   10.9502 H       1  UNL1        0.0000
     38 H           2.3021    6.1886   11.6552 H       1  UNL1        0.0000
     39 H           1.6025    7.4251   10.6123 H       1  UNL1        0.0000
     40 C           1.4624    5.0348    9.3358 C.3     1  UNL1        0.0000
     41 H           0.5816    5.6605    9.1963 H       1  UNL1        0.0000
     42 H           1.2910    4.3953   10.1977 H       1  UNL1        0.0000
     43 H           1.5708    4.4025    8.4583 H       1  UNL1        0.0000
@<TRIPOS>BOND
     1    20    17    1
     2    24    23    1
     3    33    32    1
     4    25    23    1
     5    17    19    1
     6    17    18    1
     7    17     2    1
     8    35    32    1
     9    23    26    1
    10    23    22    1
    11    32    34    1
    12    32    31    1
    13     1    16    2
    14    43    40    1
    15     6     5    1
    16     2    16    1
    17    16    15    1
    18    41    40    1
    19    40    31    1
    20    40    42    1
    21    31    22    1
    22    31    36    1
    23    22    21    1
    24    22    27    1
    25     5    21    1
    26     5    15    1
    27     5     7    1
    28    15     3    1
    29    15    13    1
    30     3     4    1
    31     8     7    1
    32    39    36    1
    33     7     9    1
    34    36    37    1
    35    36    38    1
    36    10     9    1
    37     9    11    2
    38    29    27    1
    39    27    28    1
    40    27    30    1
    41    11    13    1
    42    11    12    1
    43    13    14    1
