@<TRIPOS>MOLECULE
1,2,4,5
 22 22 0 0 0
SMALL
GASTEIGER

@<TRIPOS>ATOM
      1 C           7.8738    9.4060    8.0804 C.3     1  UNL1        0.0252
      2 C           7.5350    8.2839    7.2852 C.2     1  UNL1       -0.0725
      3 C           8.4667    8.1858    6.2319 C.2     1  UNL1       -0.0651
      4 C           9.3886    9.2438    6.3633 C.2     1  UNL1       -0.0651
      5 C           9.0309    9.9914    7.5067 C.2     1  UNL1       -0.0725
      6 C           7.2189    9.8572    9.3715 C.3     1  UNL1       -0.0241
      7 C           6.8433   11.3439    9.2497 C.3     1  UNL1       -0.0590
      8 C           5.9453    9.0529    9.6471 C.3     1  UNL1       -0.0590
      9 C           8.1989    9.6666   10.5390 C.3     1  UNL1       -0.0590
     10 H           6.7580    7.5586    7.4858 H       1  UNL1        0.0581
     11 H           8.5311    7.3663    5.5273 H       1  UNL1        0.0615
     12 H          10.3025    9.3589    5.7913 H       1  UNL1        0.0615
     13 H           9.6334   10.7758    7.9498 H       1  UNL1        0.0581
     14 H           7.7357   11.9678    9.2034 H       1  UNL1        0.0235
     15 H           6.2355   11.4933    8.3444 H       1  UNL1        0.0235
     16 H           6.2613   11.6570   10.1155 H       1  UNL1        0.0235
     17 H           5.2413    9.1644    8.8229 H       1  UNL1        0.0235
     18 H           6.1786    7.9987    9.7766 H       1  UNL1        0.0235
     19 H           5.4671    9.4081   10.5578 H       1  UNL1        0.0235
     20 H           8.4704    8.6179   10.6322 H       1  UNL1        0.0235
     21 H           9.1095   10.2392   10.3807 H       1  UNL1        0.0235
     22 H           7.7447    9.9915   11.4727 H       1  UNL1        0.0235
@<TRIPOS>BOND
     1    11     3    1
     2    12     4    1
     3     3     4    1
     4     3     2    2
     5     4     5    2
     6     2    10    1
     7     2     1    1
     8     5    13    1
     9     5     1    1
    10     1     6    1
    11    15     7    1
    12    17     8    1
    13    14     7    1
    14     7     6    1
    15     7    16    1
    16     6     8    1
    17     6     9    1
    18     8    18    1
    19     8    19    1
    20    21     9    1
    21     9    20    1
    22     9    22    1
