@<TRIPOS>MOLECULE
5,6,11,12
 44 45 0 0 0
SMALL
GASTEIGER

@<TRIPOS>ATOM
      1 SI          3.7518    1.1809    1.6224 Si      1  UNL1        0.0000
      2 SI          3.7828    1.6192    7.4096 Si      1  UNL1        0.0000
      3 O           2.4585    0.9563    4.5466 O.2     1  UNL1        0.0000
      4 C           3.6063    1.3608    4.5136 C.2     1  UNL1        0.0000
      5 C           4.4790    1.7347    5.6562 C.3     1  UNL1        0.0000
      6 C           5.4954    2.5863    5.1352 C.3     1  UNL1        0.0000
      7 C           6.3210    3.5986    5.8772 C.3     1  UNL1        0.0000
      8 C           6.9254    4.6204    4.9103 C.3     1  UNL1        0.0000
      9 C           7.4943    3.9319    3.6719 C.3     1  UNL1        0.0000
     10 C           6.3587    3.3321    2.8445 C.3     1  UNL1        0.0000
     11 C           5.5053    2.4626    3.7137 C.3     1  UNL1        0.0000
     12 C           4.4809    1.5459    3.3276 C.3     1  UNL1        0.0000
     13 C           2.4027    2.9308    7.5396 C.3     1  UNL1        0.0000
     14 C           3.1103   -0.1451    7.6343 C.3     1  UNL1        0.0000
     15 C           5.1495    1.9355    8.7046 C.3     1  UNL1        0.0000
     16 C           3.1341   -0.6177    1.6558 C.3     1  UNL1        0.0000
     17 C           2.3270    2.4234    1.3656 C.3     1  UNL1        0.0000
     18 C           5.0548    1.3672    0.2402 C.3     1  UNL1        0.0000
     19 H           5.6859    4.1049    6.6075 H       1  UNL1        0.0000
     20 H           7.1188    3.1037    6.4346 H       1  UNL1        0.0000
     21 H           7.7065    5.1852    5.4215 H       1  UNL1        0.0000
     22 H           6.1534    5.3273    4.5971 H       1  UNL1        0.0000
     23 H           8.0536    4.6482    3.0681 H       1  UNL1        0.0000
     24 H           8.1778    3.1357    3.9781 H       1  UNL1        0.0000
     25 H           5.7316    4.1363    2.4445 H       1  UNL1        0.0000
     26 H           6.7521    2.7714    1.9968 H       1  UNL1        0.0000
     27 H           1.6454    2.7485    6.7835 H       1  UNL1        0.0000
     28 H           2.7793    3.9399    7.3951 H       1  UNL1        0.0000
     29 H           1.9195    2.8948    8.5112 H       1  UNL1        0.0000
     30 H           2.4330   -0.3929    6.8236 H       1  UNL1        0.0000
     31 H           2.5663   -0.2519    8.5676 H       1  UNL1        0.0000
     32 H           3.9132   -0.8778    7.6329 H       1  UNL1        0.0000
     33 H           6.0568    1.3873    8.4716 H       1  UNL1        0.0000
     34 H           4.8146    1.6077    9.6828 H       1  UNL1        0.0000
     35 H           5.4086    2.9854    8.7884 H       1  UNL1        0.0000
     36 H           2.4703   -0.7682    2.5008 H       1  UNL1        0.0000
     37 H           3.9594   -1.3186    1.7520 H       1  UNL1        0.0000
     38 H           2.5870   -0.8721    0.7534 H       1  UNL1        0.0000
     39 H           1.6049    2.3311    2.1706 H       1  UNL1        0.0000
     40 H           1.8092    2.2374    0.4296 H       1  UNL1        0.0000
     41 H           2.6786    3.4515    1.3501 H       1  UNL1        0.0000
     42 H           5.9723    0.8369    0.4752 H       1  UNL1        0.0000
     43 H           5.3054    2.4047    0.0462 H       1  UNL1        0.0000
     44 H           4.6693    0.9510   -0.6843 H       1  UNL1        0.0000
@<TRIPOS>BOND
     1    44    18    1
     2    43    18    1
     3    18    42    1
     4    18     1    1
     5    40    17    1
     6    38    16    1
     7    41    17    1
     8    17     1    1
     9    17    39    1
    10     1    16    1
    11     1    12    1
    12    16    37    1
    13    16    36    1
    14    26    10    1
    15    25    10    1
    16    10     9    1
    17    10    11    1
    18    23     9    1
    19    12    11    1
    20    12     4    1
    21     9    24    1
    22     9     8    1
    23    11     6    1
    24     4     3    2
    25     4     5    1
    26    22     8    1
    27     8    21    1
    28     8     7    1
    29     6     5    1
    30     6     7    1
    31     5     2    1
    32     7    20    1
    33     7    19    1
    34    27    13    1
    35    30    14    1
    36    28    13    1
    37     2    13    1
    38     2    14    1
    39     2    15    1
    40    13    29    1
    41    32    14    1
    42    14    31    1
    43    33    15    1
    44    15    35    1
    45    15    34    1
