@<TRIPOS>MOLECULE
1,3,11,13
 20 20 0 0 0
SMALL
GASTEIGER

@<TRIPOS>ATOM
      1 C          -1.5139    4.3092    3.3307 C.3     1  UNL1       -0.0348
      2 H          -1.3882    3.2308    3.4023 H       1  UNL1        0.0306
      3 C          -1.1814    5.0594    4.4782 C.3     1  UNL1       -0.0348
      4 H          -0.7973    4.4912    5.3214 H       1  UNL1        0.0306
      5 C          -1.9296    6.3163    4.8799 C.3     1  UNL1       -0.0494
      6 H          -1.9405    6.3952    5.9688 H       1  UNL1        0.0268
      7 H          -2.9688    6.2331    4.5573 H       1  UNL1        0.0268
      8 C          -1.2892    7.5921    4.3025 C.3     1  UNL1       -0.0494
      9 H          -2.0486    8.3731    4.1830 H       1  UNL1        0.0268
     10 H          -0.5503    7.9692    5.0132 H       1  UNL1        0.0268
     11 C          -0.5947    7.3668    2.9837 C.3     1  UNL1       -0.0348
     12 H           0.2376    8.0408    2.8024 H       1  UNL1        0.0306
     13 C          -1.1325    6.7031    1.9121 C.3     1  UNL1       -0.0348
     14 H          -0.6775    6.8562    0.9385 H       1  UNL1        0.0306
     15 C          -2.5361    6.1526    1.8862 C.3     1  UNL1       -0.0494
     16 H          -2.9249    6.2186    0.8677 H       1  UNL1        0.0268
     17 H          -3.1742    6.7763    2.5145 H       1  UNL1        0.0268
     18 C          -2.6012    4.6849    2.3484 C.3     1  UNL1       -0.0494
     19 H          -3.5816    4.4759    2.7919 H       1  UNL1        0.0268
     20 H          -2.5017    4.0328    1.4773 H       1  UNL1        0.0268
@<TRIPOS>BOND
     1    16    15    1
     2    14    13    1
     3    20    18    1
     4    15    13    1
     5    15    18    1
     6    15    17    1
     7    13    11    1
     8    18    19    1
     9    18     1    1
    10    12    11    1
    11    11     8    1
    12     1     2    1
    13     1     3    1
    14     9     8    1
    15     8     5    1
    16     8    10    1
    17     3     5    1
    18     3     4    1
    19     7     5    1
    20     5     6    1
