@<TRIPOS>MOLECULE
2,3,4,5
 56 56 0 0 0
SMALL
GASTEIGER

@<TRIPOS>ATOM
      1 SI         13.3701    1.0982    4.3286 Si      1  UNL1        0.0000
      2 C          12.4416   -0.0001    5.5901 C.3     1  UNL1        0.0000
      3 C          12.8191   -1.2079    6.3601 C.3     1  UNL1        0.0000
      4 C          11.3909   -1.5563    6.4923 C.2     1  UNL1        0.0000
      5 C          11.0387   -0.3508    5.7554 C.2     1  UNL1        0.0000
      6 C          14.7941    2.1439    5.0613 C.3     1  UNL1        0.0000
      7 H          15.5419    1.5899    5.6121 H       1  UNL1        0.0000
      8 H          14.3960    2.9012    5.7303 H       1  UNL1        0.0000
      9 H          15.3053    2.6656    4.2569 H       1  UNL1        0.0000
     10 C          13.9439   -0.0830    2.9214 C.3     1  UNL1        0.0000
     11 H          14.9471   -0.4686    3.0714 H       1  UNL1        0.0000
     12 H          13.9489    0.4455    1.9728 H       1  UNL1        0.0000
     13 H          13.2795   -0.9353    2.8097 H       1  UNL1        0.0000
     14 C          12.4680    2.4904    3.3583 C.3     1  UNL1        0.0000
     15 H          11.5502    2.1920    2.8671 H       1  UNL1        0.0000
     16 H          13.1455    2.8374    2.5813 H       1  UNL1        0.0000
     17 H          12.2460    3.3501    3.9827 H       1  UNL1        0.0000
     18 C          14.1371   -1.9633    6.4142 C.3     1  UNL1        0.0000
     19 C          14.1595   -3.0265    5.3062 C.3     1  UNL1        0.0000
     20 H          15.1125   -3.5514    5.3152 H       1  UNL1        0.0000
     21 H          14.0319   -2.5591    4.3338 H       1  UNL1        0.0000
     22 H          13.3672   -3.7572    5.4384 H       1  UNL1        0.0000
     23 C          15.3005   -0.9968    6.1818 C.3     1  UNL1        0.0000
     24 H          15.2792   -0.5857    5.1821 H       1  UNL1        0.0000
     25 H          16.2459   -1.5205    6.3083 H       1  UNL1        0.0000
     26 H          15.2571   -0.1890    6.9078 H       1  UNL1        0.0000
     27 C          14.4235   -2.6084    7.7774 C.3     1  UNL1        0.0000
     28 H          13.7707   -3.4387    8.0018 H       1  UNL1        0.0000
     29 H          14.3265   -1.8632    8.5640 H       1  UNL1        0.0000
     30 H          15.4450   -2.9841    7.7894 H       1  UNL1        0.0000
     31 C          10.5858   -2.8017    6.8365 C.3     1  UNL1        0.0000
     32 C          11.3783   -3.8676    7.5962 C.3     1  UNL1        0.0000
     33 H          12.1782   -4.2858    6.9946 H       1  UNL1        0.0000
     34 H          10.7079   -4.6841    7.8608 H       1  UNL1        0.0000
     35 H          11.7805   -3.4570    8.5176 H       1  UNL1        0.0000
     36 C          10.0970   -3.4372    5.5247 C.3     1  UNL1        0.0000
     37 H           9.4090   -2.7859    4.9970 H       1  UNL1        0.0000
     38 H           9.5849   -4.3744    5.7331 H       1  UNL1        0.0000
     39 H          10.9403   -3.6446    4.8688 H       1  UNL1        0.0000
     40 C           9.4016   -2.4602    7.7519 C.3     1  UNL1        0.0000
     41 H           8.7797   -1.6748    7.3517 H       1  UNL1        0.0000
     42 H           9.7734   -2.1325    8.7208 H       1  UNL1        0.0000
     43 H           8.7839   -3.3438    7.9010 H       1  UNL1        0.0000
     44 C           9.8556    0.2667    5.0323 C.3     1  UNL1        0.0000
     45 C           9.9115    1.7958    5.1815 C.3     1  UNL1        0.0000
     46 H          10.9286    2.1590    5.2208 H       1  UNL1        0.0000
     47 H           9.4218    2.0928    6.1053 H       1  UNL1        0.0000
     48 H           9.3930    2.2786    4.3565 H       1  UNL1        0.0000
     49 C           8.4562   -0.1358    5.5080 C.3     1  UNL1        0.0000
     50 H           8.2435   -1.1887    5.3522 H       1  UNL1        0.0000
     51 H           7.7242    0.4327    4.9356 H       1  UNL1        0.0000
     52 H           8.3178    0.1149    6.5572 H       1  UNL1        0.0000
     53 C           9.9824   -0.1482    3.5553 C.3     1  UNL1        0.0000
     54 H           9.1967    0.3205    2.9663 H       1  UNL1        0.0000
     55 H           9.8843   -1.2268    3.4555 H       1  UNL1        0.0000
     56 H          10.9453    0.1392    3.1479 H       1  UNL1        0.0000
@<TRIPOS>BOND
     1    12    10    1
     2    16    14    1
     3    13    10    1
     4    15    14    1
     5    10    11    1
     6    10     1    1
     7    54    53    1
     8    56    53    1
     9    14    17    1
    10    14     1    1
    11    55    53    1
    12    53    44    1
    13     9     6    1
    14     1     6    1
    15     1     2    1
    16    21    19    1
    17    48    45    1
    18    39    36    1
    19    51    49    1
    20    37    36    1
    21    44    45    1
    22    44    49    1
    23    44     5    1
    24     6     7    1
    25     6     8    1
    26    45    46    1
    27    45    47    1
    28    24    23    1
    29    19    20    1
    30    19    22    1
    31    19    18    1
    32    50    49    1
    33    49    52    1
    34    36    38    1
    35    36    31    1
    36     2     5    1
    37     2     3    1
    38     5     4    2
    39    23    25    1
    40    23    18    1
    41    23    26    1
    42     3    18    1
    43     3     4    1
    44    18    27    1
    45     4    31    1
    46    31    32    1
    47    31    40    1
    48    33    32    1
    49    41    40    1
    50    32    34    1
    51    32    35    1
    52    40    43    1
    53    40    42    1
    54    27    30    1
    55    27    28    1
    56    27    29    1
