@<TRIPOS>MOLECULE
2,3,5,6
 22 22 0 0 0
SMALL
GASTEIGER

@<TRIPOS>ATOM
      1 SI          4.9889    7.8946    5.3199 Si      1  UNL1        0.0000
      2 C           5.9002    5.5226    6.8413 C.3     1  UNL1        0.0000
      3 C           5.4595    4.1973    6.9449 C.2     1  UNL1        0.0000
      4 C           4.7500    3.8806    5.7724 C.2     1  UNL1        0.0000
      5 C           4.7529    5.0060    4.9428 C.3     1  UNL1        0.0000
      6 C           5.4536    6.0741    5.5916 C.3     1  UNL1        0.0000
      7 C           6.0359    8.8826    4.0666 C.3     1  UNL1        0.0000
      8 C           5.0910    8.7412    7.0336 C.3     1  UNL1        0.0000
      9 C           3.1766    7.8847    4.7187 C.3     1  UNL1        0.0000
     10 H           6.3368    6.0928    7.6476 H       1  UNL1        0.0000
     11 H           5.5893    3.5402    7.7910 H       1  UNL1        0.0000
     12 H           4.2450    2.9440    5.5791 H       1  UNL1        0.0000
     13 H           4.1970    5.1024    4.0196 H       1  UNL1        0.0000
     14 H           6.2313    8.3057    3.1674 H       1  UNL1        0.0000
     15 H           5.4951    9.7753    3.7677 H       1  UNL1        0.0000
     16 H           6.9867    9.2059    4.4786 H       1  UNL1        0.0000
     17 H           4.4966    8.2141    7.7733 H       1  UNL1        0.0000
     18 H           4.7073    9.7538    6.9700 H       1  UNL1        0.0000
     19 H           6.1071    8.8074    7.4111 H       1  UNL1        0.0000
     20 H           3.1044    7.5161    3.6998 H       1  UNL1        0.0000
     21 H           2.5464    7.2586    5.3433 H       1  UNL1        0.0000
     22 H           2.7607    8.8870    4.7309 H       1  UNL1        0.0000
@<TRIPOS>BOND
     1    14     7    1
     2    20     9    1
     3    15     7    1
     4    13     5    1
     5     7    16    1
     6     7     1    1
     7     9    22    1
     8     9     1    1
     9     9    21    1
    10     5     6    1
    11     5     4    1
    12     1     6    1
    13     1     8    1
    14    12     4    1
    15     6     2    1
    16     4     3    2
    17     2     3    1
    18     2    10    1
    19     3    11    1
    20    18     8    1
    21     8    19    1
    22     8    17    1
