@<TRIPOS>MOLECULE
2,4,5,6
 22 22 0 0 0
SMALL
GASTEIGER

@<TRIPOS>ATOM
      1 SI          9.2969    5.2329    8.0425 Si      1  UNL1        0.0000
      2 C           9.5596    4.8325    5.1588 C.2     1  UNL1        0.0000
      3 C           9.5645    5.6522    4.0261 C.2     1  UNL1        0.0000
      4 C           8.8436    6.8219    4.3272 C.2     1  UNL1        0.0000
      5 C           8.3940    6.7266    5.6501 C.2     1  UNL1        0.0000
      6 C           8.8459    5.4851    6.2159 C.3     1  UNL1        0.0000
      7 C          11.1171    4.6560    8.0540 C.3     1  UNL1        0.0000
      8 C           9.1639    6.9504    8.8771 C.3     1  UNL1        0.0000
      9 C           8.2567    3.9720    9.0281 C.3     1  UNL1        0.0000
     10 H          10.1223    3.9147    5.2671 H       1  UNL1        0.0000
     11 H          10.0778    5.4544    3.0950 H       1  UNL1        0.0000
     12 H           8.7125    7.6614    3.6619 H       1  UNL1        0.0000
     13 H           7.9462    7.5343    6.2094 H       1  UNL1        0.0000
     14 H          11.5237    4.6822    9.0599 H       1  UNL1        0.0000
     15 H          11.7447    5.2839    7.4284 H       1  UNL1        0.0000
     16 H          11.2063    3.6353    7.6945 H       1  UNL1        0.0000
     17 H           8.1419    7.3136    8.9335 H       1  UNL1        0.0000
     18 H           9.5408    6.8987    9.8930 H       1  UNL1        0.0000
     19 H           9.7515    7.6954    8.3498 H       1  UNL1        0.0000
     20 H           7.2968    4.3731    9.3376 H       1  UNL1        0.0000
     21 H           8.7916    3.6871    9.9289 H       1  UNL1        0.0000
     22 H           8.0803    3.0661    8.4554 H       1  UNL1        0.0000
@<TRIPOS>BOND
     1    11     3    1
     2    12     4    1
     3     3     4    1
     4     3     2    2
     5     4     5    2
     6     2    10    1
     7     2     6    1
     8     5    13    1
     9     5     6    1
    10     6     1    1
    11    15     7    1
    12    16     7    1
    13     1     7    1
    14     1     8    1
    15     1     9    1
    16     7    14    1
    17    19     8    1
    18    22     9    1
    19     8    17    1
    20     8    18    1
    21     9    20    1
    22     9    21    1
