@<TRIPOS>MOLECULE
3,4,6,7
 26 25 0 0 0
SMALL
GASTEIGER

@<TRIPOS>ATOM
      1 SI         17.6745    0.1905    0.8726 Si      1  UNL1        0.0000
      2 O          17.0356    0.5938    2.3243 O.3     1  UNL1        0.0000
      3 C          16.8713    4.2485    2.8061 C.3     1  UNL1        0.0000
      4 C          16.4793    2.9635    2.4984 C.3     1  UNL1        0.0000
      5 C          17.2129    1.7638    3.0668 C.3     1  UNL1        0.0000
      6 C          16.5228    1.6869    4.4135 C.3     1  UNL1        0.0000
      7 C          15.1385    1.4675    4.3962 C.3     1  UNL1        0.0000
      8 C          17.1747    1.3935   -0.5236 C.3     1  UNL1        0.0000
      9 C          19.5839    0.1557    0.9708 C.3     1  UNL1        0.0000
     10 C          16.9508   -1.5415    0.6027 C.3     1  UNL1        0.0000
     11 H          17.8463    4.4126    3.2578 H       1  UNL1        0.0000
     12 H          16.4760    5.0735    2.2221 H       1  UNL1        0.0000
     13 H          15.7864    2.7591    1.6835 H       1  UNL1        0.0000
     14 H          18.2883    1.9722    3.1765 H       1  UNL1        0.0000
     15 H          17.1236    1.4389    5.2862 H       1  UNL1        0.0000
     16 H          14.6751    1.1278    3.4731 H       1  UNL1        0.0000
     17 H          14.6610    1.0947    5.2976 H       1  UNL1        0.0000
     18 H          17.5559    2.3961   -0.3451 H       1  UNL1        0.0000
     19 H          17.5556    1.0673   -1.4863 H       1  UNL1        0.0000
     20 H          16.0941    1.4667   -0.6116 H       1  UNL1        0.0000
     21 H          19.9970    1.1538    1.0942 H       1  UNL1        0.0000
     22 H          19.9206   -0.4441    1.8122 H       1  UNL1        0.0000
     23 H          20.0246   -0.2661    0.0736 H       1  UNL1        0.0000
     24 H          15.8670   -1.5139    0.5656 H       1  UNL1        0.0000
     25 H          17.3038   -1.9589   -0.3338 H       1  UNL1        0.0000
     26 H          17.2346   -2.2222    1.3982 H       1  UNL1        0.0000
@<TRIPOS>BOND
     1    19     8    1
     2    20     8    1
     3     8    18    1
     4     8     1    1
     5    25    10    1
     6    23     9    1
     7    24    10    1
     8    10     1    1
     9    10    26    1
    10     1     9    1
    11     1     2    1
    12     9    21    1
    13     9    22    1
    14    13     4    1
    15    12     3    1
    16     2     5    1
    17     4     3    1
    18     4     5    1
    19     3    11    1
    20     5    14    1
    21     5     6    1
    22    16     7    1
    23     7     6    1
    24     7    17    1
    25     6    15    1
