@<TRIPOS>MOLECULE
5,6,19,20
 44 45 0 0 0
SMALL
GASTEIGER

@<TRIPOS>ATOM
      1 SI          6.3735    3.3127    2.9419 Si      1  UNL1        0.0000
      2 SI          9.5646    8.1985    3.3478 Si      1  UNL1        0.0000
      3 O           8.3311    5.5172    4.5113 O.2     1  UNL1        0.0000
      4 C           8.0396    5.7438    3.3224 C.2     1  UNL1        0.0000
      5 C           7.0975    4.9895    2.4835 C.2     1  UNL1        0.0000
      6 C           7.0773    5.6127    1.2173 C.2     1  UNL1        0.0000
      7 C           6.4552    5.1025   -0.0495 C.3     1  UNL1        0.0000
      8 H           5.3719    5.2322   -0.0066 H       1  UNL1        0.0000
      9 H           6.6471    4.0316   -0.1424 H       1  UNL1        0.0000
     10 C           7.0065    5.8452   -1.2679 C.3     1  UNL1        0.0000
     11 H           8.0170    5.4920   -1.4877 H       1  UNL1        0.0000
     12 H           6.3821    5.6322   -2.1372 H       1  UNL1        0.0000
     13 C           7.0534    7.3476   -1.0033 C.3     1  UNL1        0.0000
     14 H           6.0762    7.6845   -0.6476 H       1  UNL1        0.0000
     15 H           7.2892    7.8855   -1.9230 H       1  UNL1        0.0000
     16 C           8.1052    7.6527    0.0613 C.3     1  UNL1        0.0000
     17 H           9.1001    7.4120   -0.3284 H       1  UNL1        0.0000
     18 H           8.0984    8.7119    0.3154 H       1  UNL1        0.0000
     19 C           7.8523    6.8162    1.2745 C.3     1  UNL1        0.0000
     20 C           8.3805    6.9563    2.5756 C.3     1  UNL1        0.0000
     21 C           6.4596    2.9772    4.8179 C.3     1  UNL1        0.0000
     22 H           5.5623    3.3129    5.3293 H       1  UNL1        0.0000
     23 H           7.3089    3.4846    5.2618 H       1  UNL1        0.0000
     24 H           6.5669    1.9150    5.0163 H       1  UNL1        0.0000
     25 C           7.3724    1.9521    2.0412 C.3     1  UNL1        0.0000
     26 H           8.4103    1.9563    2.3601 H       1  UNL1        0.0000
     27 H           7.3608    2.0734    0.9625 H       1  UNL1        0.0000
     28 H           6.9638    0.9707    2.2623 H       1  UNL1        0.0000
     29 C           4.5409    3.2828    2.4034 C.3     1  UNL1        0.0000
     30 H           4.0120    2.4527    2.8605 H       1  UNL1        0.0000
     31 H           4.4396    3.1778    1.3288 H       1  UNL1        0.0000
     32 H           4.0342    4.1999    2.6914 H       1  UNL1        0.0000
     33 C          11.1921    7.2876    3.7511 C.3     1  UNL1        0.0000
     34 H          11.8692    7.9213    4.3157 H       1  UNL1        0.0000
     35 H          11.7107    6.9688    2.8513 H       1  UNL1        0.0000
     36 H          10.9876    6.4037    4.3463 H       1  UNL1        0.0000
     37 C           8.7287    8.8674    4.9268 C.3     1  UNL1        0.0000
     38 H           8.7609    8.1267    5.7187 H       1  UNL1        0.0000
     39 H           7.6840    9.1002    4.7354 H       1  UNL1        0.0000
     40 H           9.2139    9.7667    5.2936 H       1  UNL1        0.0000
     41 C           9.9243    9.6747    2.1943 C.3     1  UNL1        0.0000
     42 H          10.6041   10.3644    2.6835 H       1  UNL1        0.0000
     43 H           9.0198   10.2248    1.9571 H       1  UNL1        0.0000
     44 H          10.3874    9.3693    1.2625 H       1  UNL1        0.0000
@<TRIPOS>BOND
     1    12    10    1
     2    15    13    1
     3    11    10    1
     4    10    13    1
     5    10     7    1
     6    13    14    1
     7    13    16    1
     8    17    16    1
     9     9     7    1
    10     7     8    1
    11     7     6    1
    12    16    18    1
    13    16    19    1
    14    27    25    1
    15     6    19    1
    16     6     5    2
    17    44    41    1
    18    19    20    1
    19    31    29    1
    20    43    41    1
    21    25    28    1
    22    25    26    1
    23    25     1    1
    24    41    42    1
    25    41     2    1
    26    29    32    1
    27    29    30    1
    28    29     1    1
    29     5     1    1
    30     5     4    1
    31    20     4    1
    32    20     2    1
    33    35    33    1
    34     1    21    1
    35     4     3    2
    36     2    33    1
    37     2    37    1
    38    33    34    1
    39    33    36    1
    40    39    37    1
    41    21    24    1
    42    21    23    1
    43    21    22    1
    44    37    40    1
    45    37    38    1
