@<TRIPOS>MOLECULE
6,7,8,19
 70 70 0 0 0
SMALL
GASTEIGER

@<TRIPOS>ATOM
      1 S          13.0476    2.9920   14.2247 S.O     1  UNL1        0.0000
      2 SI          6.5147    0.5486   13.3265 Si      1  UNL1        0.0000
      3 O          13.7811    4.1556   13.7306 O.2     1  UNL1        0.0000
      4 O           8.1511    0.6289   13.2327 O.3     1  UNL1        0.0000
      5 O          13.0773   -1.6978   12.9930 O.3     1  UNL1        0.0000
      6 C          11.5562    2.9014   13.1106 C.3     1  UNL1        0.0000
      7 C          10.3717    2.2143   13.5340 C.2     1  UNL1        0.0000
      8 C          10.4394    0.8302   13.7748 C.2     1  UNL1        0.0000
      9 C           9.1463    0.1108   14.0666 C.3     1  UNL1        0.0000
     10 C           6.0655    1.7375   11.8924 C.3     1  UNL1        0.0000
     11 C           4.5923    1.6577   11.5036 C.3     1  UNL1        0.0000
     12 C           6.9437    1.5360   10.6592 C.3     1  UNL1        0.0000
     13 C           5.8742    1.2768   14.9979 C.3     1  UNL1        0.0000
     14 C           6.5905    2.5850   15.3407 C.3     1  UNL1        0.0000
     15 C           6.0013    0.3093   16.1764 C.3     1  UNL1        0.0000
     16 C           5.9787   -1.2944   13.1715 C.3     1  UNL1        0.0000
     17 C           4.4716   -1.5257   13.2772 C.3     1  UNL1        0.0000
     18 C           6.5053   -1.9268   11.8821 C.3     1  UNL1        0.0000
     19 C          11.7016    0.1965   13.5573 C.3     1  UNL1        0.0000
     20 C          11.8612   -1.3129   13.5978 C.3     1  UNL1        0.0000
     21 C          11.8999   -1.8339   15.0488 C.3     1  UNL1        0.0000
     22 C          12.9140   -1.1140   15.8786 C.2     1  UNL1        0.0000
     23 C          12.6630   -0.5724   17.0555 C.2     1  UNL1        0.0000
     24 C          12.0037    3.5943   15.5915 C.ar    1  UNL1        0.0000
     25 C          11.8307    4.9536   15.7682 C.ar    1  UNL1        0.0000
     26 C          10.9813    5.4092   16.7586 C.ar    1  UNL1        0.0000
     27 C          10.3021    4.5131   17.5785 C.ar    1  UNL1        0.0000
     28 C          10.5075    3.1501   17.3976 C.ar    1  UNL1        0.0000
     29 C          11.3585    2.6853   16.4104 C.ar    1  UNL1        0.0000
     30 C           9.3766    5.0218   18.6408 C.3     1  UNL1        0.0000
     31 H          13.1179   -1.3259   12.1048 H       1  UNL1        0.0000
     32 H          11.4062    3.9382   12.8093 H       1  UNL1        0.0000
     33 H           9.4167    2.7206   13.6238 H       1  UNL1        0.0000
     34 H           9.2376   -0.9674   13.9055 H       1  UNL1        0.0000
     35 H           8.8870    0.2762   15.1208 H       1  UNL1        0.0000
     36 H           6.2493    2.7568   12.2492 H       1  UNL1        0.0000
     37 H           3.9507    1.7855   12.3717 H       1  UNL1        0.0000
     38 H           4.3694    0.6956   11.0501 H       1  UNL1        0.0000
     39 H           4.3460    2.4326   10.7791 H       1  UNL1        0.0000
     40 H           7.9954    1.5900   10.9300 H       1  UNL1        0.0000
     41 H           6.7367    2.3029    9.9141 H       1  UNL1        0.0000
     42 H           6.7597    0.5656   10.2071 H       1  UNL1        0.0000
     43 H           4.8105    1.5113   14.8899 H       1  UNL1        0.0000
     44 H           6.4703    3.3153   14.5449 H       1  UNL1        0.0000
     45 H           7.6554    2.4167   15.4906 H       1  UNL1        0.0000
     46 H           6.1869    3.0133   16.2576 H       1  UNL1        0.0000
     47 H           5.4566   -0.6122   15.9926 H       1  UNL1        0.0000
     48 H           5.6032    0.7629   17.0836 H       1  UNL1        0.0000
     49 H           7.0431    0.0548   16.3608 H       1  UNL1        0.0000
     50 H           6.4483   -1.8314   14.0061 H       1  UNL1        0.0000
     51 H           4.0686   -1.0951   14.1898 H       1  UNL1        0.0000
     52 H           4.2505   -2.5922   13.2746 H       1  UNL1        0.0000
     53 H           3.9548   -1.0734   12.4359 H       1  UNL1        0.0000
     54 H           7.5691   -1.7392   11.7601 H       1  UNL1        0.0000
     55 H           5.9881   -1.5156   11.0192 H       1  UNL1        0.0000
     56 H           6.3431   -3.0040   11.8888 H       1  UNL1        0.0000
     57 H          12.5680    0.6584   14.0241 H       1  UNL1        0.0000
     58 H          11.0255   -1.8034   13.0695 H       1  UNL1        0.0000
     59 H          10.9087   -1.7477   15.4960 H       1  UNL1        0.0000
     60 H          12.1739   -2.8910   14.9978 H       1  UNL1        0.0000
     61 H          13.9029   -1.0686   15.4447 H       1  UNL1        0.0000
     62 H          11.6843   -0.6247   17.5071 H       1  UNL1        0.0000
     63 H          13.4237   -0.0709   17.6286 H       1  UNL1        0.0000
     64 H          12.3684    5.6352   15.1254 H       1  UNL1        0.0000
     65 H          10.8385    6.4710   16.8982 H       1  UNL1        0.0000
     66 H           9.9972    2.4448   18.0382 H       1  UNL1        0.0000
     67 H          11.5243    1.6261   16.2797 H       1  UNL1        0.0000
     68 H           8.8779    4.2018   19.1508 H       1  UNL1        0.0000
     69 H           8.6212    5.6746   18.2056 H       1  UNL1        0.0000
     70 H           9.9313    5.6021   19.3773 H       1  UNL1        0.0000
@<TRIPOS>BOND
     1    41    12    1
     2    42    12    1
     3    12    40    1
     4    12    10    1
     5    39    11    1
     6    55    18    1
     7    38    11    1
     8    11    10    1
     9    11    37    1
    10    54    18    1
    11    18    56    1
    12    18    16    1
    13    10    36    1
    14    10     2    1
    15    31     5    1
    16    53    17    1
    17    32     6    1
    18     5    20    1
    19    58    20    1
    20     6     7    1
    21     6     1    1
    22    16    17    1
    23    16     2    1
    24    16    50    1
    25     4     2    1
    26     4     9    1
    27    52    17    1
    28    17    51    1
    29     2    13    1
    30     7    33    1
    31     7     8    2
    32    19    20    1
    33    19     8    1
    34    19    57    1
    35    20    21    1
    36     3     1    2
    37     8     9    1
    38    34     9    1
    39     9    35    1
    40     1    24    1
    41    44    14    1
    42    43    13    1
    43    60    21    1
    44    13    14    1
    45    13    15    1
    46    21    59    1
    47    21    22    1
    48    64    25    1
    49    14    45    1
    50    14    46    1
    51    61    22    1
    52    24    25   ar
    53    24    29   ar
    54    25    26   ar
    55    22    23    2
    56    47    15    1
    57    15    49    1
    58    15    48    1
    59    67    29    1
    60    29    28   ar
    61    26    65    1
    62    26    27   ar
    63    23    62    1
    64    23    63    1
    65    28    27   ar
    66    28    66    1
    67    27    30    1
    68    69    30    1
    69    30    68    1
    70    30    70    1
