@<TRIPOS>MOLECULE
5,6,7,8
 61 60 0 0 0
SMALL
GASTEIGER

@<TRIPOS>ATOM
      1 SI         14.4964    4.1067    4.5646 Si      1  UNL1        0.0000
      2 SI         14.2274    5.7345    8.9799 Si      1  UNL1        0.0000
      3 SI         14.1306    8.9305    5.8939 Si      1  UNL1        0.0000
      4 SI         10.6781    9.4516    7.3900 Si      1  UNL1        0.0000
      5 C          13.7559    5.7687    5.0634 C.3     1  UNL1        0.0000
      6 C          13.2904    6.2220    6.2845 C.3     1  UNL1        0.0000
      7 C          12.8317    7.6030    6.3296 C.3     1  UNL1        0.0000
      8 C          11.5467    7.8499    6.9041 C.3     1  UNL1        0.0000
      9 C          14.1761    3.9773    2.6834 C.3     1  UNL1        0.0000
     10 C          13.8616    2.4971    5.3877 C.3     1  UNL1        0.0000
     11 C          16.3863    4.1439    4.8629 C.3     1  UNL1        0.0000
     12 C          13.1370    5.3016    7.4553 C.3     1  UNL1        0.0000
     13 C          16.0205    6.1906    8.5306 C.3     1  UNL1        0.0000
     14 C          14.2520    4.1463   10.0437 C.3     1  UNL1        0.0000
     15 C          13.4085    7.1448    9.9668 C.3     1  UNL1        0.0000
     16 C          15.8208    8.1495    5.4036 C.3     1  UNL1        0.0000
     17 C          13.7219   10.1408    4.4619 C.3     1  UNL1        0.0000
     18 C          14.5046    9.9581    7.4685 C.3     1  UNL1        0.0000
     19 C           8.8077    9.0360    7.3303 C.3     1  UNL1        0.0000
     20 C          10.9840   10.9619    6.2695 C.3     1  UNL1        0.0000
     21 C          11.0169    9.9540    9.2139 C.3     1  UNL1        0.0000
     22 H          14.0292    6.5526    4.3509 H       1  UNL1        0.0000
     23 H          11.1725    7.0507    7.5545 H       1  UNL1        0.0000
     24 H          13.1388    4.1866    2.4337 H       1  UNL1        0.0000
     25 H          14.7887    4.6885    2.1379 H       1  UNL1        0.0000
     26 H          14.4139    2.9874    2.3059 H       1  UNL1        0.0000
     27 H          12.7801    2.4581    5.4659 H       1  UNL1        0.0000
     28 H          14.1686    1.6400    4.7939 H       1  UNL1        0.0000
     29 H          14.2739    2.3574    6.3837 H       1  UNL1        0.0000
     30 H          16.8372    5.0398    4.4487 H       1  UNL1        0.0000
     31 H          16.6309    4.1101    5.9206 H       1  UNL1        0.0000
     32 H          16.8628    3.2894    4.3926 H       1  UNL1        0.0000
     33 H          12.1118    5.2968    7.8336 H       1  UNL1        0.0000
     34 H          13.3613    4.2823    7.1464 H       1  UNL1        0.0000
     35 H          16.6565    6.1090    9.4070 H       1  UNL1        0.0000
     36 H          16.4284    5.5310    7.7710 H       1  UNL1        0.0000
     37 H          16.0987    7.2075    8.1619 H       1  UNL1        0.0000
     38 H          14.7530    4.3230   10.9902 H       1  UNL1        0.0000
     39 H          13.2499    3.7925   10.2683 H       1  UNL1        0.0000
     40 H          14.7790    3.3384    9.5442 H       1  UNL1        0.0000
     41 H          14.0603    7.4964   10.7611 H       1  UNL1        0.0000
     42 H          13.1721    7.9920    9.3315 H       1  UNL1        0.0000
     43 H          12.4825    6.8163   10.4310 H       1  UNL1        0.0000
     44 H          16.6270    8.8088    5.7113 H       1  UNL1        0.0000
     45 H          15.9953    7.1817    5.8578 H       1  UNL1        0.0000
     46 H          15.9069    8.0233    4.3285 H       1  UNL1        0.0000
     47 H          14.5616   10.2296    3.7786 H       1  UNL1        0.0000
     48 H          12.8626    9.8020    3.8903 H       1  UNL1        0.0000
     49 H          13.5068   11.1375    4.8287 H       1  UNL1        0.0000
     50 H          15.2576   10.7050    7.2388 H       1  UNL1        0.0000
     51 H          13.6273   10.4804    7.8294 H       1  UNL1        0.0000
     52 H          14.8873    9.3488    8.2806 H       1  UNL1        0.0000
     53 H           8.4947    8.7696    6.3252 H       1  UNL1        0.0000
     54 H           8.5637    8.2039    7.9845 H       1  UNL1        0.0000
     55 H           8.2064    9.8817    7.6491 H       1  UNL1        0.0000
     56 H          11.8711   11.5121    6.5612 H       1  UNL1        0.0000
     57 H          11.1010   10.6544    5.2370 H       1  UNL1        0.0000
     58 H          10.1448   11.6484    6.3263 H       1  UNL1        0.0000
     59 H          12.0504   10.2297    9.3950 H       1  UNL1        0.0000
     60 H          10.4036   10.8093    9.4813 H       1  UNL1        0.0000
     61 H          10.7683    9.1512    9.9014 H       1  UNL1        0.0000
@<TRIPOS>BOND
     1    25     9    1
     2    26     9    1
     3    24     9    1
     4     9     1    1
     5    47    17    1
     6    48    17    1
     7    46    16    1
     8    22     5    1
     9    32    11    1
    10    30    11    1
    11    17    49    1
    12    17     3    1
    13     1    11    1
    14     1     5    1
    15     1    10    1
    16    28    10    1
    17    11    31    1
    18     5     6    1
    19    57    20    1
    20    10    27    1
    21    10    29    1
    22    16    44    1
    23    16    45    1
    24    16     3    1
    25     3     7    1
    26     3    18    1
    27    20    58    1
    28    20    56    1
    29    20     4    1
    30     6     7    1
    31     6    12    1
    32    53    19    1
    33     7     8    1
    34     8     4    1
    35     8    23    1
    36    34    12    1
    37    50    18    1
    38    19     4    1
    39    19    55    1
    40    19    54    1
    41     4    21    1
    42    12    33    1
    43    12     2    1
    44    18    51    1
    45    18    52    1
    46    36    13    1
    47    37    13    1
    48    13     2    1
    49    13    35    1
    50     2    15    1
    51     2    14    1
    52    21    59    1
    53    21    60    1
    54    21    61    1
    55    42    15    1
    56    40    14    1
    57    15    43    1
    58    15    41    1
    59    14    39    1
    60    14    38    1
