@<TRIPOS>MOLECULE
5,6,7,8
 47 47 0 0 0
SMALL
GASTEIGER

@<TRIPOS>ATOM
      1 SI          4.7075    5.7570    1.6409 Si      1  UNL1        0.0000
      2 SI          3.0800    8.4547    2.1890 Si      1  UNL1        0.0000
      3 SI          4.0594    6.7204    4.6326 Si      1  UNL1        0.0000
      4 C           5.8205    8.0665    2.7597 C.3     1  UNL1        0.0000
      5 C           6.9592    7.6448    3.6692 C.3     1  UNL1        0.0000
      6 C           6.8095    8.3101    4.9262 C.3     1  UNL1        0.0000
      7 C           6.0630    9.4741    4.6683 C.3     1  UNL1        0.0000
      8 C           5.8064    9.4978    3.2725 C.3     1  UNL1        0.0000
      9 C           4.4811    7.2739    2.8367 C.3     1  UNL1        0.0000
     10 C           2.4249    9.6390    3.5443 C.3     1  UNL1        0.0000
     11 C           1.5343    7.5256    1.5614 C.3     1  UNL1        0.0000
     12 C           3.6585    9.5536    0.7250 C.3     1  UNL1        0.0000
     13 C           6.3864    4.8629    1.8482 C.3     1  UNL1        0.0000
     14 C           3.3795    4.3990    1.8214 C.3     1  UNL1        0.0000
     15 C           4.7042    6.3296   -0.1842 C.3     1  UNL1        0.0000
     16 C           5.1480    5.3106    5.3132 C.3     1  UNL1        0.0000
     17 C           2.2806    6.0640    4.8176 C.3     1  UNL1        0.0000
     18 H           4.1239    7.8494    5.5860 H       1  UNL1        0.0000
     19 H           6.1411    8.0428    1.7160 H       1  UNL1        0.0000
     20 H           7.4029    6.6623    3.5981 H       1  UNL1        0.0000
     21 H           7.1241    7.9493    5.8929 H       1  UNL1        0.0000
     22 H           5.7363   10.1997    5.4000 H       1  UNL1        0.0000
     23 H           5.1696   10.2470    2.8270 H       1  UNL1        0.0000
     24 H           1.7316   10.3558    3.1129 H       1  UNL1        0.0000
     25 H           1.8915    9.0972    4.3170 H       1  UNL1        0.0000
     26 H           3.2128   10.2017    4.0318 H       1  UNL1        0.0000
     27 H           0.7655    8.2401    1.2829 H       1  UNL1        0.0000
     28 H           1.7441    6.9179    0.6888 H       1  UNL1        0.0000
     29 H           1.1128    6.8791    2.3210 H       1  UNL1        0.0000
     30 H           3.5444   10.6082    0.9599 H       1  UNL1        0.0000
     31 H           4.6990    9.3925    0.4690 H       1  UNL1        0.0000
     32 H           3.0721    9.3584   -0.1673 H       1  UNL1        0.0000
     33 H           6.4229    3.9913    1.2002 H       1  UNL1        0.0000
     34 H           7.2174    5.5036    1.5712 H       1  UNL1        0.0000
     35 H           6.5550    4.5161    2.8615 H       1  UNL1        0.0000
     36 H           3.4950    3.6653    1.0294 H       1  UNL1        0.0000
     37 H           3.4699    3.8716    2.7646 H       1  UNL1        0.0000
     38 H           2.3731    4.7925    1.7538 H       1  UNL1        0.0000
     39 H           4.8474    5.4810   -0.8468 H       1  UNL1        0.0000
     40 H           3.7756    6.8114   -0.4662 H       1  UNL1        0.0000
     41 H           5.5081    7.0299   -0.3864 H       1  UNL1        0.0000
     42 H           4.8764    5.1025    6.3441 H       1  UNL1        0.0000
     43 H           5.0011    4.3936    4.7515 H       1  UNL1        0.0000
     44 H           6.2054    5.5431    5.2976 H       1  UNL1        0.0000
     45 H           2.1312    5.6983    5.8287 H       1  UNL1        0.0000
     46 H           1.5415    6.8363    4.6424 H       1  UNL1        0.0000
     47 H           2.0673    5.2438    4.1441 H       1  UNL1        0.0000
@<TRIPOS>BOND
     1    39    15    1
     2    40    15    1
     3    41    15    1
     4    15     1    1
     5    32    12    1
     6    31    12    1
     7    28    11    1
     8    12    30    1
     9    12     2    1
    10    36    14    1
    11    33    13    1
    12    27    11    1
    13    11     2    1
    14    11    29    1
    15    34    13    1
    16     1    14    1
    17     1    13    1
    18     1     9    1
    19    19     4    1
    20    38    14    1
    21    14    37    1
    22    13    35    1
    23     2     9    1
    24     2    10    1
    25     4     9    1
    26     4     8    1
    27     4     5    1
    28    23     8    1
    29     9     3    1
    30    24    10    1
    31     8     7    1
    32    10    26    1
    33    10    25    1
    34    20     5    1
    35     5     6    1
    36    47    17    1
    37     3    17    1
    38     3    16    1
    39     3    18    1
    40    46    17    1
    41     7     6    1
    42     7    22    1
    43    43    16    1
    44    17    45    1
    45     6    21    1
    46    44    16    1
    47    16    42    1
