@<TRIPOS>MOLECULE
3,4,5,6
 37 39 0 0 0
SMALL
GASTEIGER

@<TRIPOS>ATOM
      1 SI          5.5005    3.9226    2.9670 Si      1  UNL1        0.0000
      2 C           5.0911    5.7652    3.3424 C.3     1  UNL1        0.0000
      3 C           4.6163    6.5556    2.1462 C.3     1  UNL1        0.0000
      4 C           3.2320    6.2549    1.9503 C.3     1  UNL1        0.0000
      5 C           2.7350    5.8387    3.2005 C.3     1  UNL1        0.0000
      6 C           3.8020    5.9135    4.1276 C.3     1  UNL1        0.0000
      7 C           4.2754    3.1773    1.7065 C.3     1  UNL1        0.0000
      8 C           7.2526    3.7689    2.2631 C.ar    1  UNL1        0.0000
      9 C           7.8089    2.5067    2.0735 C.ar    1  UNL1        0.0000
     10 C           9.0824    2.3537    1.5579 C.ar    1  UNL1        0.0000
     11 C           9.8293    3.4693    1.2170 C.ar    1  UNL1        0.0000
     12 C           9.2930    4.7325    1.3964 C.ar    1  UNL1        0.0000
     13 C           8.0182    4.8768    1.9149 C.ar    1  UNL1        0.0000
     14 C           5.3882    2.9690    4.6042 C.ar    1  UNL1        0.0000
     15 C           6.5301    2.5942    5.3067 C.ar    1  UNL1        0.0000
     16 C           6.4414    1.9252    6.5141 C.ar    1  UNL1        0.0000
     17 C           5.2012    1.6217    7.0495 C.ar    1  UNL1        0.0000
     18 C           4.0534    1.9892    6.3677 C.ar    1  UNL1        0.0000
     19 C           4.1501    2.6532    5.1587 C.ar    1  UNL1        0.0000
     20 H           5.9402    6.2339    3.8418 H       1  UNL1        0.0000
     21 H           5.2763    6.7565    1.3106 H       1  UNL1        0.0000
     22 H           2.6983    6.2485    1.0122 H       1  UNL1        0.0000
     23 H           1.7227    5.5200    3.4105 H       1  UNL1        0.0000
     24 H           3.7152    5.5227    5.1334 H       1  UNL1        0.0000
     25 H           4.3376    3.6896    0.7510 H       1  UNL1        0.0000
     26 H           3.2494    3.2488    2.0528 H       1  UNL1        0.0000
     27 H           4.4928    2.1277    1.5323 H       1  UNL1        0.0000
     28 H           7.2315    1.6333    2.3412 H       1  UNL1        0.0000
     29 H           9.4956    1.3643    1.4211 H       1  UNL1        0.0000
     30 H          10.8252    3.3537    0.8141 H       1  UNL1        0.0000
     31 H           9.8703    5.6073    1.1327 H       1  UNL1        0.0000
     32 H           7.6126    5.8684    2.0524 H       1  UNL1        0.0000
     33 H           7.5018    2.8283    4.8956 H       1  UNL1        0.0000
     34 H           7.3413    1.6403    7.0406 H       1  UNL1        0.0000
     35 H           5.1293    1.1006    7.9934 H       1  UNL1        0.0000
     36 H           3.0814    1.7565    6.7800 H       1  UNL1        0.0000
     37 H           3.2473    2.9320    4.6340 H       1  UNL1        0.0000
@<TRIPOS>BOND
     1    25     7    1
     2    30    11    1
     3    22     4    1
     4    31    12    1
     5    11    12   ar
     6    11    10   ar
     7    21     3    1
     8    12    13   ar
     9    29    10    1
    10    27     7    1
    11    10     9   ar
    12     7    26    1
    13     7     1    1
    14    13    32    1
    15    13     8   ar
    16     4     3    1
    17     4     5    1
    18     9     8   ar
    19     9    28    1
    20     3     2    1
    21     8     1    1
    22     1     2    1
    23     1    14    1
    24     5    23    1
    25     5     6    1
    26     2    20    1
    27     2     6    1
    28     6    24    1
    29    14    19   ar
    30    14    15   ar
    31    37    19    1
    32    33    15    1
    33    19    18   ar
    34    15    16   ar
    35    18    36    1
    36    18    17   ar
    37    16    34    1
    38    16    17   ar
    39    17    35    1
