@<TRIPOS>MOLECULE
1,3,11,13
 20 20 0 0 0
SMALL
GASTEIGER

@<TRIPOS>ATOM
      1 C           1.4026    1.6235    2.6188 C.3     1  UNL1       -0.0348
      2 H           0.5136    1.0148    2.4803 H       1  UNL1        0.0306
      3 C           1.5423    2.3047    3.8136 C.3     1  UNL1       -0.0348
      4 H           0.7580    2.1946    4.5633 H       1  UNL1        0.0306
      5 C           2.8678    2.7938    4.3552 C.3     1  UNL1       -0.0494
      6 H           3.4649    1.9342    4.6804 H       1  UNL1        0.0268
      7 H           2.6702    3.4014    5.2396 H       1  UNL1        0.0268
      8 C           3.6633    3.6335    3.3353 C.3     1  UNL1       -0.0494
      9 H           4.2303    4.3962    3.8722 H       1  UNL1        0.0268
     10 H           4.3847    3.0081    2.8060 H       1  UNL1        0.0268
     11 C           2.7633    4.3163    2.3217 C.3     1  UNL1       -0.0348
     12 H           2.8513    5.4023    2.3204 H       1  UNL1        0.0306
     13 C           2.4039    3.7217    1.0936 C.3     1  UNL1       -0.0348
     14 H           2.2410    4.3918    0.2454 H       1  UNL1        0.0306
     15 C           2.8300    2.3365    0.6586 C.3     1  UNL1       -0.0494
     16 H           3.8915    2.3567    0.3868 H       1  UNL1        0.0268
     17 H           2.2702    2.0831   -0.2443 H       1  UNL1        0.0268
     18 C           2.5745    1.2626    1.7316 C.3     1  UNL1       -0.0494
     19 H           2.3732    0.3096    1.2384 H       1  UNL1        0.0268
     20 H           3.4628    1.1253    2.3494 H       1  UNL1        0.0268
@<TRIPOS>BOND
     1    17    15    1
     2    14    13    1
     3    16    15    1
     4    15    13    1
     5    15    18    1
     6    13    11    1
     7    19    18    1
     8    18    20    1
     9    18     1    1
    10    12    11    1
    11    11     8    1
    12     2     1    1
    13     1     3    1
    14    10     8    1
    15     8     9    1
    16     8     5    1
    17     3     5    1
    18     3     4    1
    19     5     6    1
    20     5     7    1
