@<TRIPOS>MOLECULE
3,5,9,10
 52 53 0 0 0
SMALL
GASTEIGER

@<TRIPOS>ATOM
      1 N           4.2231    2.4524    2.0997 N.3     1  UNL1        0.0000
      2 SI          2.8992    1.5081    2.7035 Si      1  UNL1        0.0000
      3 C           2.9850    1.2682    4.5556 C.3     1  UNL1        0.0000
      4 H           3.9734    1.1817    5.0061 H       1  UNL1        0.0000
      5 C           1.9631    0.4395    5.0794 C.2     1  UNL1        0.0000
      6 H           1.2180    0.0857    4.3647 H       1  UNL1        0.0000
      7 C           1.7299    0.0435    6.3972 C.2     1  UNL1        0.0000
      8 H           0.9169   -0.6573    6.5540 H       1  UNL1        0.0000
      9 C           2.2974    0.5900    7.5708 C.3     1  UNL1        0.0000
     10 C           3.4660    1.3752    7.6650 C.3     1  UNL1        0.0000
     11 H           4.2770    1.1896    6.9565 H       1  UNL1        0.0000
     12 C           3.9966    1.6712    9.0692 C.3     1  UNL1        0.0000
     13 H           4.2425    2.7297    9.1942 H       1  UNL1        0.0000
     14 H           4.9284    1.1163    9.2321 H       1  UNL1        0.0000
     15 C           2.9802    1.2674   10.1313 C.3     1  UNL1        0.0000
     16 H           3.2957    1.5664   11.1329 H       1  UNL1        0.0000
     17 C           1.5831    1.6934    9.6501 C.3     1  UNL1        0.0000
     18 H           1.5275    2.6035    9.0383 H       1  UNL1        0.0000
     19 H           0.8502    1.7377   10.4539 H       1  UNL1        0.0000
     20 C           1.5663    0.3637    8.8732 C.3     1  UNL1        0.0000
     21 H           0.6124   -0.1528    8.7449 H       1  UNL1        0.0000
     22 C           2.5445   -0.2052    9.9370 C.3     1  UNL1        0.0000
     23 C           3.5776   -1.2254    9.4782 C.3     1  UNL1        0.0000
     24 H           4.3790   -1.3003   10.2111 H       1  UNL1        0.0000
     25 H           4.0046   -0.9657    8.5152 H       1  UNL1        0.0000
     26 H           3.1097   -2.2036    9.3831 H       1  UNL1        0.0000
     27 C           1.8261   -0.7663   11.1612 C.3     1  UNL1        0.0000
     28 H           1.2973   -1.6813   10.8989 H       1  UNL1        0.0000
     29 H           1.1068   -0.0653   11.5744 H       1  UNL1        0.0000
     30 H           2.5510   -1.0035   11.9380 H       1  UNL1        0.0000
     31 C           2.7816   -0.1730    1.7609 C.3     1  UNL1        0.0000
     32 H           2.7972   -0.0174    0.6857 H       1  UNL1        0.0000
     33 H           1.8655   -0.7050    1.9981 H       1  UNL1        0.0000
     34 H           3.6082   -0.8342    2.0034 H       1  UNL1        0.0000
     35 C           1.2362    2.4023    2.3493 C.3     1  UNL1        0.0000
     36 H           0.7381    2.6265    3.2948 H       1  UNL1        0.0000
     37 H           0.5719    1.7782    1.7590 H       1  UNL1        0.0000
     38 H           1.3643    3.3349    1.8113 H       1  UNL1        0.0000
     39 C           5.5458    2.3663    2.6724 C.3     1  UNL1        0.0000
     40 H           5.4501    2.4007    3.7589 H       1  UNL1        0.0000
     41 H           6.1266    3.2388    2.3574 H       1  UNL1        0.0000
     42 C           6.2996    1.0922    2.2857 C.3     1  UNL1        0.0000
     43 H           5.7761    0.2230    2.6738 H       1  UNL1        0.0000
     44 H           7.3069    1.1112    2.6951 H       1  UNL1        0.0000
     45 H           6.3672    0.9984    1.2046 H       1  UNL1        0.0000
     46 C           4.1837    2.9616    0.7471 C.3     1  UNL1        0.0000
     47 H           3.2754    2.6004    0.2634 H       1  UNL1        0.0000
     48 H           5.0364    2.5797    0.1724 H       1  UNL1        0.0000
     49 C           4.1928    4.4906    0.7004 C.3     1  UNL1        0.0000
     50 H           3.3184    4.8863    1.2100 H       1  UNL1        0.0000
     51 H           4.1821    4.8338   -0.3315 H       1  UNL1        0.0000
     52 H           5.0793    4.8883    1.1878 H       1  UNL1        0.0000
@<TRIPOS>BOND
     1    51    49    1
     2    48    46    1
     3    47    46    1
     4    32    31    1
     5    49    46    1
     6    49    52    1
     7    49    50    1
     8    46     1    1
     9    45    42    1
    10    37    35    1
    11    31    33    1
    12    31    34    1
    13    31     2    1
    14    38    35    1
    15     1    39    1
    16     1     2    1
    17    42    39    1
    18    42    43    1
    19    42    44    1
    20    35     2    1
    21    35    36    1
    22    41    39    1
    23    39    40    1
    24     2     3    1
    25     6     5    1
    26     3     4    1
    27     3     5    1
    28     5     7    2
    29     7     8    1
    30     7     9    1
    31    11    10    1
    32     9    10    1
    33     9    20    1
    34    10    12    1
    35    25    23    1
    36    21    20    1
    37    20    17    1
    38    20    22    1
    39    18    17    1
    40    12    13    1
    41    12    14    1
    42    12    15    1
    43    26    23    1
    44    23    22    1
    45    23    24    1
    46    17    15    1
    47    17    19    1
    48    22    15    1
    49    22    27    1
    50    15    16    1
    51    28    27    1
    52    27    29    1
    53    27    30    1
