@<TRIPOS>MOLECULE
3,5,9,10
 46 47 0 0 0
SMALL
GASTEIGER

@<TRIPOS>ATOM
      1 SI          4.5123    1.4574    2.4426 Si      1  UNL1        0.0000
      2 N           2.8897    1.1189    1.9098 N.3     1  UNL1        0.0000
      3 C           4.8675    3.2891    2.3549 C.3     1  UNL1        0.0000
      4 H           4.4405    3.8479    1.5228 H       1  UNL1        0.0000
      5 C           6.1669    3.6606    2.7842 C.2     1  UNL1        0.0000
      6 H           6.8078    2.8513    3.1383 H       1  UNL1        0.0000
      7 C           6.7321    4.9316    2.8860 C.2     1  UNL1        0.0000
      8 H           7.7713    4.9760    3.1946 H       1  UNL1        0.0000
      9 C           6.0610    6.1746    2.8187 C.3     1  UNL1        0.0000
     10 C           4.7838    6.4199    2.2665 C.3     1  UNL1        0.0000
     11 H           4.4608    5.8079    1.4212 H       1  UNL1        0.0000
     12 C           4.3698    7.8825    2.0906 C.3     1  UNL1        0.0000
     13 H           3.3545    8.0627    2.4553 H       1  UNL1        0.0000
     14 H           4.3632    8.1334    1.0230 H       1  UNL1        0.0000
     15 C           5.3345    8.8122    2.8178 C.3     1  UNL1        0.0000
     16 H           4.9975    9.8505    2.7942 H       1  UNL1        0.0000
     17 C           5.6711    8.1863    4.1813 C.3     1  UNL1        0.0000
     18 H           4.8794    7.5956    4.6609 H       1  UNL1        0.0000
     19 H           6.0843    8.9030    4.8889 H       1  UNL1        0.0000
     20 C           6.7423    7.3791    3.4235 C.3     1  UNL1        0.0000
     21 H           7.6720    7.1310    3.9409 H       1  UNL1        0.0000
     22 C           6.7942    8.5329    2.3843 C.3     1  UNL1        0.0000
     23 C           7.0751    8.1688    0.9327 C.3     1  UNL1        0.0000
     24 H           6.7752    8.9857    0.2786 H       1  UNL1        0.0000
     25 H           6.5523    7.2670    0.6321 H       1  UNL1        0.0000
     26 H           8.1415    7.9973    0.7974 H       1  UNL1        0.0000
     27 C           7.7472    9.6532    2.7920 C.3     1  UNL1        0.0000
     28 H           8.7785    9.3099    2.7279 H       1  UNL1        0.0000
     29 H           7.5671    9.9989    3.8057 H       1  UNL1        0.0000
     30 H           7.6290   10.5014    2.1199 H       1  UNL1        0.0000
     31 C           5.7850    0.3994    1.4512 C.3     1  UNL1        0.0000
     32 H           5.6202   -0.6631    1.6094 H       1  UNL1        0.0000
     33 H           6.8098    0.6171    1.7350 H       1  UNL1        0.0000
     34 H           5.6994    0.5867    0.3845 H       1  UNL1        0.0000
     35 C           4.7260    0.9798    4.2898 C.3     1  UNL1        0.0000
     36 H           4.9618    1.8808    4.8609 H       1  UNL1        0.0000
     37 H           5.5392    0.2730    4.4235 H       1  UNL1        0.0000
     38 H           3.8383    0.5379    4.7278 H       1  UNL1        0.0000
     39 C           2.4006    1.6571    0.6660 C.3     1  UNL1        0.0000
     40 H           2.6290    0.9982   -0.1829 H       1  UNL1        0.0000
     41 H           2.8505    2.6274    0.4797 H       1  UNL1        0.0000
     42 H           1.3138    1.7746    0.7155 H       1  UNL1        0.0000
     43 C           2.2793   -0.1518    2.2049 C.3     1  UNL1        0.0000
     44 H           1.1949   -0.0316    2.2930 H       1  UNL1        0.0000
     45 H           2.6652   -0.5404    3.1418 H       1  UNL1        0.0000
     46 H           2.4739   -0.8923    1.4177 H       1  UNL1        0.0000
@<TRIPOS>BOND
     1    40    39    1
     2    24    23    1
     3    34    31    1
     4    41    39    1
     5    25    23    1
     6    39    42    1
     7    39     2    1
     8    26    23    1
     9    23    22    1
    10    14    12    1
    11    46    43    1
    12    11    10    1
    13    31    32    1
    14    31    33    1
    15    31     1    1
    16     4     3    1
    17     2    43    1
    18     2     1    1
    19    12    10    1
    20    12    13    1
    21    12    15    1
    22    30    27    1
    23    43    44    1
    24    43    45    1
    25    10     9    1
    26     3     1    1
    27     3     5    1
    28    22    27    1
    29    22    15    1
    30    22    20    1
    31     1    35    1
    32    28    27    1
    33     5     7    2
    34     5     6    1
    35    27    29    1
    36    16    15    1
    37    15    17    1
    38     9     7    1
    39     9    20    1
    40     7     8    1
    41    20    21    1
    42    20    17    1
    43    17    18    1
    44    17    19    1
    45    35    37    1
    46    35    38    1
    47    35    36    1
