@<TRIPOS>MOLECULE
5,6,7,8
 70 74 0 0 0
SMALL
GASTEIGER

@<TRIPOS>ATOM
      1 P           9.5528    6.0851   14.0744 P.3     1  UNL1        0.0000
      2 SI          5.6679    8.9412   16.3496 Si      1  UNL1        0.0000
      3 O          11.8496    9.8365   15.3695 O.3     1  UNL1        0.0000
      4 H          12.6061   10.2747   15.7764 H       1  UNL1        0.0000
      5 C          10.0493    7.7763   14.5082 C.3     1  UNL1        0.0000
      6 C           9.9096    8.4954   15.7294 C.2     1  UNL1        0.0000
      7 C           8.6845    8.9092   16.3594 C.2     1  UNL1        0.0000
      8 C           7.4483    8.4724   15.8531 C.3     1  UNL1        0.0000
      9 C           9.0378    9.9352   17.3493 C.ar    1  UNL1        0.0000
     10 C           8.2413   10.6587   18.2237 C.ar    1  UNL1        0.0000
     11 H           7.1768   10.5027   18.2584 H       1  UNL1        0.0000
     12 C           8.8399   11.5871   19.0619 C.ar    1  UNL1        0.0000
     13 H           8.2275   12.1590   19.7418 H       1  UNL1        0.0000
     14 C          10.2102   11.7909   19.0410 C.ar    1  UNL1        0.0000
     15 H          10.6548   12.5228   19.6971 H       1  UNL1        0.0000
     16 C          11.0193   11.0494   18.1898 C.ar    1  UNL1        0.0000
     17 H          12.0893   11.1995   18.1888 H       1  UNL1        0.0000
     18 C          10.4281   10.1242   17.3571 C.ar    1  UNL1        0.0000
     19 C          11.0985    9.1863   16.3762 C.3     1  UNL1        0.0000
     20 C          11.9489    8.1423   17.1180 C.3     1  UNL1        0.0000
     21 H          12.7660    8.6341   17.6413 H       1  UNL1        0.0000
     22 H          12.3620    7.4259   16.4098 H       1  UNL1        0.0000
     23 H          11.3409    7.6127   17.8472 H       1  UNL1        0.0000
     24 C           5.4414    8.2254   18.1089 C.3     1  UNL1        0.0000
     25 H           5.3433    7.1446   18.0656 H       1  UNL1        0.0000
     26 H           4.5325    8.6136   18.5565 H       1  UNL1        0.0000
     27 H           6.2627    8.4498   18.7823 H       1  UNL1        0.0000
     28 C           5.2057   10.7881   16.2290 C.3     1  UNL1        0.0000
     29 H           5.0999   11.0920   15.1917 H       1  UNL1        0.0000
     30 H           5.9132   11.4596   16.7042 H       1  UNL1        0.0000
     31 H           4.2428   10.9458   16.7061 H       1  UNL1        0.0000
     32 C           4.5812    7.9650   15.1294 C.3     1  UNL1        0.0000
     33 H           4.8230    8.2043   14.0981 H       1  UNL1        0.0000
     34 H           3.5286    8.1822   15.2789 H       1  UNL1        0.0000
     35 H           4.7153    6.8933   15.2498 H       1  UNL1        0.0000
     36 C          10.9910    5.1336   14.7146 C.ar    1  UNL1        0.0000
     37 C          12.2423    5.4734   14.1994 C.ar    1  UNL1        0.0000
     38 H          12.3276    6.2646   13.4658 H       1  UNL1        0.0000
     39 C          13.3760    4.7914   14.5964 C.ar    1  UNL1        0.0000
     40 H          14.3378    5.0666   14.1913 H       1  UNL1        0.0000
     41 C          13.2748    3.7494   15.5051 C.ar    1  UNL1        0.0000
     42 H          14.1590    3.2154   15.8163 H       1  UNL1        0.0000
     43 C          12.0336    3.3855   15.9965 C.ar    1  UNL1        0.0000
     44 H          11.9451    2.5611   16.6874 H       1  UNL1        0.0000
     45 C          10.8950    4.0688   15.6019 C.ar    1  UNL1        0.0000
     46 H           9.9347    3.7570   15.9841 H       1  UNL1        0.0000
     47 C           8.1397    5.2848   14.8716 C.ar    1  UNL1        0.0000
     48 C           8.0953    5.2821   16.2663 C.ar    1  UNL1        0.0000
     49 H           8.8764    5.7780   16.8302 H       1  UNL1        0.0000
     50 C           7.0391    4.6687   16.9138 C.ar    1  UNL1        0.0000
     51 H           6.9975    4.6691   17.9924 H       1  UNL1        0.0000
     52 C           6.0388    4.0530   16.1760 C.ar    1  UNL1        0.0000
     53 H           5.2159    3.5738   16.6836 H       1  UNL1        0.0000
     54 C           6.0891    4.0555   14.7909 C.ar    1  UNL1        0.0000
     55 H           5.3060    3.5804   14.2208 H       1  UNL1        0.0000
     56 C           7.1372    4.6734   14.1310 C.ar    1  UNL1        0.0000
     57 H           7.1701    4.7053   13.0523 H       1  UNL1        0.0000
     58 C           9.7795    5.7340   12.3174 C.ar    1  UNL1        0.0000
     59 C           9.7155    4.4027   11.9194 C.ar    1  UNL1        0.0000
     60 H           9.4934    3.6334   12.6472 H       1  UNL1        0.0000
     61 C           9.9396    4.0759   10.5945 C.ar    1  UNL1        0.0000
     62 H           9.8770    3.0463   10.2773 H       1  UNL1        0.0000
     63 C          10.2503    5.0688    9.6789 C.ar    1  UNL1        0.0000
     64 H          10.4270    4.8113    8.6461 H       1  UNL1        0.0000
     65 C          10.3389    6.3910   10.0855 C.ar    1  UNL1        0.0000
     66 H          10.5897    7.1597    9.3705 H       1  UNL1        0.0000
     67 C          10.1024    6.7298   11.4050 C.ar    1  UNL1        0.0000
     68 H          10.1499    7.7623   11.7253 H       1  UNL1        0.0000
     69 H          11.0662    7.8836   14.1068 H       1  UNL1        0.0000
     70 H           7.4423    7.4226   15.5617 H       1  UNL1        0.0000
@<TRIPOS>BOND
     1    64    63    1
     2    66    65    1
     3    63    65   ar
     4    63    61   ar
     5    65    67   ar
     6    62    61    1
     7    61    59   ar
     8    67    68    1
     9    67    58   ar
    10    59    58   ar
    11    59    60    1
    12    58     1    1
    13    57    56    1
    14    38    37    1
    15     1     5    1
    16     1    36    1
    17     1    47    1
    18    33    32    1
    19    69     5    1
    20    56    54   ar
    21    56    47   ar
    22    40    39    1
    23    37    39   ar
    24    37    36   ar
    25    55    54    1
    26     5     6    1
    27    39    41   ar
    28    36    45   ar
    29    54    52   ar
    30    47    48   ar
    31    32    35    1
    32    32    34    1
    33    32     2    1
    34    29    28    1
    35     3     4    1
    36     3    19    1
    37    41    42    1
    38    41    43   ar
    39    70     8    1
    40    45    46    1
    41    45    43   ar
    42     6     7    2
    43     6    19    1
    44     8     2    1
    45     8     7    1
    46    43    44    1
    47    52    53    1
    48    52    50   ar
    49    28     2    1
    50    28    30    1
    51    28    31    1
    52    48    49    1
    53    48    50   ar
    54     2    24    1
    55     7     9    1
    56    19    20    1
    57    19    18    1
    58    22    20    1
    59    50    51    1
    60    20    21    1
    61    20    23    1
    62     9    18   ar
    63     9    10   ar
    64    18    16   ar
    65    25    24    1
    66    24    26    1
    67    24    27    1
    68    17    16    1
    69    16    14   ar
    70    10    11    1
    71    10    12   ar
    72    14    12   ar
    73    14    15    1
    74    12    13    1
