@<TRIPOS>MOLECULE
1,2,4,5
 16 16 0 0 0
SMALL
GASTEIGER

@<TRIPOS>ATOM
      1 C           3.2278    2.3269   13.6373 C.2     1  UNL1       -0.0647
      2 C           4.3009    1.6567   13.0081 C.2     1  UNL1       -0.0595
      3 C           5.3690    2.5656   12.8379 C.2     1  UNL1       -0.0538
      4 C           4.9292    3.8243   13.3039 C.2     1  UNL1       -0.0731
      5 C           3.6182    3.6708   13.8131 C.3     1  UNL1        0.0087
      6 C           2.0189    1.6485   14.2156 C.3     1  UNL1       -0.0429
      7 C           6.7493    2.1976   12.3897 C.3     1  UNL1       -0.0400
      8 H           4.3671    0.5871   12.8567 H       1  UNL1        0.0620
      9 H           5.5558    4.6981   13.4312 H       1  UNL1        0.0581
     10 H           3.0749    4.4151   14.3824 H       1  UNL1        0.0397
     11 H           2.3371    0.8527   14.8926 H       1  UNL1        0.0275
     12 H           1.3936    1.1942   13.4448 H       1  UNL1        0.0275
     13 H           1.4146    2.3515   14.7878 H       1  UNL1        0.0275
     14 H           6.8504    2.2879   11.3062 H       1  UNL1        0.0277
     15 H           6.9655    1.1655   12.6654 H       1  UNL1        0.0277
     16 H           7.4883    2.8451   12.8611 H       1  UNL1        0.0277
@<TRIPOS>BOND
     1    14     7    1
     2     7    15    1
     3     7     3    1
     4     7    16    1
     5     3     2    1
     6     3     4    2
     7     8     2    1
     8     2     1    2
     9     4     9    1
    10     4     5    1
    11    12     6    1
    12     1     5    1
    13     1     6    1
    14     5    10    1
    15     6    13    1
    16     6    11    1
