@<TRIPOS>MOLECULE
7,9,19,37
 63 66 0 0 0
SMALL
GASTEIGER

@<TRIPOS>ATOM
      1 C           5.0771    8.1542    1.6476 C.2     1  UNL1       -0.0617
      2 H           5.3774    7.3809    0.9617 H       1  UNL1        0.0617
      3 C           4.2039    9.2147    1.3146 C.2     1  UNL1       -0.0651
      4 H           3.7455    9.3551    0.3510 H       1  UNL1        0.0615
      5 C           4.0555   10.0304    2.4126 C.2     1  UNL1       -0.0760
      6 H           3.5199   10.9681    2.4436 H       1  UNL1        0.0578
      7 C           4.8158    9.4823    3.4990 C.3     1  UNL1        0.0093
      8 H           5.3116   10.1501    4.2117 H       1  UNL1        0.0397
      9 C           5.4792    8.2946    2.9576 C.2     1  UNL1       -0.0550
     10 C           6.3829    7.4010    3.8006 C.3     1  UNL1        0.0018
     11 C           7.4846    8.2966    4.3926 C.3     1  UNL1       -0.0549
     12 H           8.2596    7.6956    4.8622 H       1  UNL1        0.0238
     13 H           7.0819    9.0017    5.1186 H       1  UNL1        0.0238
     14 H           7.9418    8.8643    3.5831 H       1  UNL1        0.0238
     15 C           7.0819    6.3321    2.9441 C.3     1  UNL1       -0.0549
     16 H           7.6734    6.8076    2.1647 H       1  UNL1        0.0238
     17 H           6.3646    5.6623    2.4808 H       1  UNL1        0.0238
     18 H           7.7417    5.7359    3.5719 H       1  UNL1        0.0238
     19 C           5.5251    6.6890    4.8696 C.3     1  UNL1        0.0450
     20 C           5.8802    6.3694    6.2424 C.ar    1  UNL1       -0.0269
     21 C           6.8085    6.9114    7.1471 C.ar    1  UNL1       -0.0534
     22 H           7.4360    7.7286    6.8423 H       1  UNL1        0.0624
     23 C           6.9468    6.4022    8.4270 C.ar    1  UNL1       -0.0417
     24 C           6.1382    5.3297    8.8291 C.ar    1  UNL1       -0.0575
     25 H           6.2408    4.9219    9.8233 H       1  UNL1        0.0621
     26 C           5.2145    4.7693    7.9749 C.ar    1  UNL1       -0.0535
     27 H           4.6040    3.9385    8.2987 H       1  UNL1        0.0624
     28 C           5.0794    5.2707    6.6894 C.ar    1  UNL1       -0.0135
     29 C           4.2450    4.8448    5.6062 C.ar    1  UNL1       -0.0135
     30 C           3.3181    3.8163    5.4958 C.ar    1  UNL1       -0.0535
     31 H           3.1120    3.1757    6.3419 H       1  UNL1        0.0624
     32 C           2.6721    3.6114    4.2959 C.ar    1  UNL1       -0.0575
     33 H           1.9556    2.8072    4.2268 H       1  UNL1        0.0621
     34 C           2.9307    4.4111    3.1703 C.ar    1  UNL1       -0.0417
     35 C           3.8613    5.4314    3.2666 C.ar    1  UNL1       -0.0534
     36 H           4.0957    6.0345    2.4028 H       1  UNL1        0.0624
     37 C           4.5274    5.6822    4.4855 C.ar    1  UNL1       -0.0269
     38 C           7.9623    6.9584    9.4175 C.3     1  UNL1       -0.0127
     39 C           7.2340    7.4352   10.6825 C.3     1  UNL1       -0.0560
     40 H           6.5283    8.2259   10.4355 H       1  UNL1        0.0238
     41 H           7.9499    7.8254   11.4033 H       1  UNL1        0.0238
     42 H           6.6857    6.6251   11.1541 H       1  UNL1        0.0238
     43 C           8.9566    5.8467    9.7820 C.3     1  UNL1       -0.0560
     44 H           8.4527    5.0016   10.2421 H       1  UNL1        0.0238
     45 H           9.7028    6.2211   10.4803 H       1  UNL1        0.0238
     46 H           9.4658    5.4923    8.8882 H       1  UNL1        0.0238
     47 C           8.7629    8.1413    8.8631 C.3     1  UNL1       -0.0560
     48 H           9.3354    7.8506    7.9857 H       1  UNL1        0.0238
     49 H           9.4652    8.4865    9.6196 H       1  UNL1        0.0238
     50 H           8.1121    8.9752    8.6061 H       1  UNL1        0.0238
     51 C           2.1801    4.1202    1.8778 C.3     1  UNL1       -0.0127
     52 C           2.5388    5.0930    0.7509 C.3     1  UNL1       -0.0560
     53 H           1.9511    4.8538   -0.1335 H       1  UNL1        0.0238
     54 H           3.5896    5.0129    0.4834 H       1  UNL1        0.0238
     55 H           2.3217    6.1207    1.0335 H       1  UNL1        0.0238
     56 C           0.6707    4.2341    2.1367 C.3     1  UNL1       -0.0560
     57 H           0.3403    3.5234    2.8889 H       1  UNL1        0.0238
     58 H           0.1180    4.0388    1.2197 H       1  UNL1        0.0238
     59 H           0.4248    5.2366    2.4822 H       1  UNL1        0.0238
     60 C           2.5205    2.6982    1.4090 C.3     1  UNL1       -0.0560
     61 H           2.2234    1.9569    2.1456 H       1  UNL1        0.0238
     62 H           3.5920    2.6042    1.2454 H       1  UNL1        0.0238
     63 H           2.0073    2.4768    0.4754 H       1  UNL1        0.0238
@<TRIPOS>BOND
     1    53    52    1
     2     4     3    1
     3    63    60    1
     4    54    52    1
     5    52    55    1
     6    52    51    1
     7     2     1    1
     8    58    56    1
     9    62    60    1
    10     3     1    1
    11     3     5    2
    12    60    51    1
    13    60    61    1
    14     1     9    2
    15    51    56    1
    16    51    34    1
    17    56    59    1
    18    56    57    1
    19    16    15    1
    20    36    35    1
    21     5     6    1
    22     5     7    1
    23    17    15    1
    24    15    18    1
    25    15    10    1
    26     9     7    1
    27     9    10    1
    28    34    35   ar
    29    34    32   ar
    30    35    37   ar
    31     7     8    1
    32    14    11    1
    33    10    11    1
    34    10    19    1
    35    33    32    1
    36    32    30   ar
    37    11    12    1
    38    11    13    1
    39    37    19    1
    40    37    29   ar
    41    19    20    1
    42    30    29   ar
    43    30    31    1
    44    29    28    1
    45    20    28   ar
    46    20    21   ar
    47    28    26   ar
    48    22    21    1
    49    21    23   ar
    50    26    27    1
    51    26    24   ar
    52    48    47    1
    53    23    24   ar
    54    23    38    1
    55    50    47    1
    56    24    25    1
    57    47    38    1
    58    47    49    1
    59    46    43    1
    60    38    43    1
    61    38    39    1
    62    43    44    1
    63    43    45    1
    64    40    39    1
    65    39    42    1
    66    39    41    1
