@<TRIPOS>MOLECULE
1,3,5,9
 10 10 0 0 0
SMALL
GASTEIGER

@<TRIPOS>ATOM
      1 C           9.4822    3.1427    7.6292 C.3     1  UNL1       -0.0235
      2 H          10.1245    2.5399    8.2600 H       1  UNL1        0.0315
      3 C           9.2807    2.9571    6.2380 C.3     1  UNL1       -0.0127
      4 H           9.7604    2.2051    5.6249 H       1  UNL1        0.0352
      5 C           8.2077    3.7816    5.8418 C.2     1  UNL1       -0.0837
      6 H           7.7446    3.7918    4.8638 H       1  UNL1        0.0572
      7 C           7.7355    4.4636    6.9817 C.2     1  UNL1       -0.0837
      8 H           6.8398    5.0693    7.0285 H       1  UNL1        0.0572
      9 C           8.5223    4.0701    8.0847 C.3     1  UNL1       -0.0127
     10 H           8.3357    4.3299    9.1183 H       1  UNL1        0.0352
@<TRIPOS>BOND
     1     6     5    1
     2     4     3    1
     3     5     3    1
     4     5     7    2
     5     3     1    1
     6     7     8    1
     7     7     9    1
     8     1     9    1
     9     1     2    1
    10     9    10    1
