@<TRIPOS>MOLECULE
14,15,16,17
 49 51 0 0 0
SMALL
GASTEIGER

@<TRIPOS>ATOM
      1 SI          5.2988    2.0896    4.1982 Si      1  UNL1        0.0000
      2 O           4.0606    3.0612    4.6148 O.3     1  UNL1        0.0000
      3 C           3.2543    3.9940    3.9148 C.3     1  UNL1        0.0000
      4 C           2.1155    3.2270    3.2087 C.3     1  UNL1        0.0000
      5 C           1.1858    2.8219    4.3751 C.3     1  UNL1        0.0000
      6 C           1.5283    3.7460    5.5538 C.3     1  UNL1        0.0000
      7 C           2.5000    4.7961    5.0014 C.3     1  UNL1        0.0000
      8 C           1.8071    6.0665    4.4977 C.3     1  UNL1        0.0000
      9 C           0.5318    5.8718    3.6785 C.3     1  UNL1        0.0000
     10 C           0.7168    5.1616    2.3738 C.2     1  UNL1        0.0000
     11 C           1.3842    4.0333    2.1737 C.2     1  UNL1        0.0000
     12 C           4.1460    4.8336    3.0386 C.2     1  UNL1        0.0000
     13 C           4.9704    5.7956    3.6180 C.2     1  UNL1        0.0000
     14 C           5.7856    6.6195    2.8186 C.3     1  UNL1        0.0000
     15 C           5.9350    6.3980    1.4282 C.3     1  UNL1        0.0000
     16 C           5.1427    5.3989    0.8522 C.2     1  UNL1        0.0000
     17 C           4.2158    4.6812    1.6326 C.2     1  UNL1        0.0000
     18 C           6.9823    7.1280    0.6432 C.3     1  UNL1        0.0000
     19 C           6.8834    3.0464    3.7236 C.3     1  UNL1        0.0000
     20 C           5.5592    1.1277    5.8149 C.3     1  UNL1        0.0000
     21 C           4.9101    0.8926    2.7590 C.3     1  UNL1        0.0000
     22 H           2.5341    2.3367    2.7376 H       1  UNL1        0.0000
     23 H           1.3632    1.7822    4.6470 H       1  UNL1        0.0000
     24 H           0.1433    2.9151    4.0731 H       1  UNL1        0.0000
     25 H           2.0333    3.1756    6.3325 H       1  UNL1        0.0000
     26 H           0.6453    4.2070    5.9934 H       1  UNL1        0.0000
     27 H           3.2112    5.0840    5.7801 H       1  UNL1        0.0000
     28 H           1.5494    6.6684    5.3727 H       1  UNL1        0.0000
     29 H           2.5043    6.6643    3.8847 H       1  UNL1        0.0000
     30 H           0.1216    6.8624    3.4757 H       1  UNL1        0.0000
     31 H          -0.2114    5.3312    4.2710 H       1  UNL1        0.0000
     32 H           0.1971    5.6015    1.5346 H       1  UNL1        0.0000
     33 H           1.3727    3.6088    1.1782 H       1  UNL1        0.0000
     34 H           4.9951    5.9163    4.6904 H       1  UNL1        0.0000
     35 H           6.4301    7.3425    3.3022 H       1  UNL1        0.0000
     36 H           5.2635    5.1468   -0.1928 H       1  UNL1        0.0000
     37 H           3.6536    3.8928    1.1566 H       1  UNL1        0.0000
     38 H           7.9485    6.6357    0.7657 H       1  UNL1        0.0000
     39 H           7.0788    8.1533    0.9910 H       1  UNL1        0.0000
     40 H           6.7350    7.1389   -0.4148 H       1  UNL1        0.0000
     41 H           7.7430    2.3843    3.6957 H       1  UNL1        0.0000
     42 H           6.8037    3.5149    2.7463 H       1  UNL1        0.0000
     43 H           7.1010    3.8302    4.4435 H       1  UNL1        0.0000
     44 H           5.7714    1.7939    6.6442 H       1  UNL1        0.0000
     45 H           6.3945    0.4430    5.7191 H       1  UNL1        0.0000
     46 H           4.6831    0.5448    6.0788 H       1  UNL1        0.0000
     47 H           5.7202    0.1851    2.6123 H       1  UNL1        0.0000
     48 H           4.7710    1.4192    1.8181 H       1  UNL1        0.0000
     49 H           4.0102    0.3143    2.9511 H       1  UNL1        0.0000
@<TRIPOS>BOND
     1    40    18    1
     2    36    16    1
     3    18    38    1
     4    18    39    1
     5    18    15    1
     6    16    15    1
     7    16    17    2
     8    37    17    1
     9    33    11    1
    10    15    14    1
    11    32    10    1
    12    17    12    1
    13    48    21    1
    14    11    10    2
    15    11     4    1
    16    10     9    1
    17    47    21    1
    18    22     4    1
    19    42    19    1
    20    21    49    1
    21    21     1    1
    22    14    35    1
    23    14    13    1
    24    12    13    2
    25    12     3    1
    26     4     3    1
    27     4     5    1
    28    30     9    1
    29    13    34    1
    30     9    31    1
    31     9     8    1
    32    41    19    1
    33    19     1    1
    34    19    43    1
    35    29     8    1
    36     3     2    1
    37     3     7    1
    38    24     5    1
    39     1     2    1
    40     1    20    1
    41     5    23    1
    42     5     6    1
    43     8     7    1
    44     8    28    1
    45     7     6    1
    46     7    27    1
    47     6    26    1
    48     6    25    1
    49    45    20    1
    50    20    46    1
    51    20    44    1
