@<TRIPOS>MOLECULE
1,3,4,5
 25 25 0 0 0
SMALL
GASTEIGER

@<TRIPOS>ATOM
      1 C           2.4370    2.4209    0.1911 C.3     1  UNL1        0.0052
      2 C           2.4918    3.8194    0.5219 C.2     1  UNL1       -0.0658
      3 C           2.6839    3.9430    1.9042 C.2     1  UNL1       -0.0658
      4 C           2.7477    2.6153    2.4713 C.3     1  UNL1        0.0052
      5 C           2.5012    1.6724    1.4023 C.3     1  UNL1       -0.0053
      6 C           2.1030    1.9033   -1.1704 C.3     1  UNL1       -0.0545
      7 C           2.3694    4.9184   -0.4748 C.3     1  UNL1       -0.0430
      8 C           2.7177    5.2229    2.6747 C.3     1  UNL1       -0.0430
      9 C           2.6194    2.3059    3.9314 C.3     1  UNL1       -0.0545
     10 C           2.1138    0.2347    1.5836 C.3     1  UNL1       -0.0574
     11 H           1.0517    2.0904   -1.3985 H       1  UNL1        0.0239
     12 H           2.2831    0.8328   -1.2418 H       1  UNL1        0.0239
     13 H           2.7090    2.4068   -1.9230 H       1  UNL1        0.0239
     14 H           2.2267    5.8772    0.0162 H       1  UNL1        0.0275
     15 H           1.5298    4.7329   -1.1437 H       1  UNL1        0.0275
     16 H           3.2791    4.9668   -1.0799 H       1  UNL1        0.0275
     17 H           1.7029    5.6050    2.8024 H       1  UNL1        0.0275
     18 H           3.3019    5.9782    2.1522 H       1  UNL1        0.0275
     19 H           3.1502    5.0765    3.6608 H       1  UNL1        0.0275
     20 H           1.5770    2.4035    4.2408 H       1  UNL1        0.0239
     21 H           3.2159    2.9889    4.5329 H       1  UNL1        0.0239
     22 H           2.9475    1.2913    4.1454 H       1  UNL1        0.0239
     23 H           1.0432    0.1684    1.7888 H       1  UNL1        0.0236
     24 H           2.6490   -0.2175    2.4168 H       1  UNL1        0.0236
     25 H           2.3246   -0.3463    0.6878 H       1  UNL1        0.0236
@<TRIPOS>BOND
     1    13     6    1
     2    11     6    1
     3    12     6    1
     4     6     1    1
     5    15     7    1
     6    16     7    1
     7     7    14    1
     8     7     2    1
     9     1     2    1
    10     1     5    1
    11     2     3    2
    12    25    10    1
    13     5    10    1
    14     5     4    1
    15    10    23    1
    16    10    24    1
    17     3     4    1
    18     3     8    1
    19    18     8    1
    20     4     9    1
    21     8    17    1
    22     8    19    1
    23     9    22    1
    24     9    20    1
    25     9    21    1
