@<TRIPOS>MOLECULE
1,3,11,13
 20 20 0 0 0
SMALL
GASTEIGER

@<TRIPOS>ATOM
      1 C           9.2766    3.3946    4.8138 C.3     1  UNL1       -0.0348
      2 H          10.2331    2.9718    5.1219 H       1  UNL1        0.0306
      3 C           8.9944    3.3346    3.4458 C.3     1  UNL1       -0.0348
      4 H           9.7721    2.8994    2.8247 H       1  UNL1        0.0306
      5 C           8.1963    4.4006    2.7272 C.3     1  UNL1       -0.0494
      6 H           8.1379    4.1332    1.6704 H       1  UNL1        0.0268
      7 H           8.7397    5.3521    2.7843 H       1  UNL1        0.0268
      8 C           8.8133    4.5686    5.6562 C.3     1  UNL1       -0.0494
      9 H           8.8732    5.4747    5.0456 H       1  UNL1        0.0268
     10 H           9.5023    4.6991    6.4937 H       1  UNL1        0.0268
     11 C           6.3056    3.3948    4.1171 C.3     1  UNL1       -0.0348
     12 H           5.3491    2.9718    3.8089 H       1  UNL1        0.0306
     13 C           6.5877    3.3348    5.4851 C.3     1  UNL1       -0.0348
     14 H           5.8101    2.8996    6.1063 H       1  UNL1        0.0306
     15 C           7.3861    4.4007    6.2036 C.3     1  UNL1       -0.0494
     16 H           7.4445    4.1333    7.2604 H       1  UNL1        0.0268
     17 H           6.8428    5.3522    6.1465 H       1  UNL1        0.0268
     18 C           6.7691    4.5686    3.2746 C.3     1  UNL1       -0.0494
     19 H           6.7092    5.4748    3.8851 H       1  UNL1        0.0268
     20 H           6.0802    4.6991    2.4370 H       1  UNL1        0.0268
@<TRIPOS>BOND
     1     6     5    1
     2    20    18    1
     3     5     7    1
     4     5    18    1
     5     5     3    1
     6     4     3    1
     7    18    19    1
     8    18    11    1
     9     3     1    1
    10    12    11    1
    11    11    13    1
    12     1     2    1
    13     1     8    1
    14     9     8    1
    15    13    14    1
    16    13    15    1
    17     8    15    1
    18     8    10    1
    19    17    15    1
    20    15    16    1
