@<TRIPOS>MOLECULE
1,2,3,4
 10 9 0 0 0
SMALL
GASTEIGER

@<TRIPOS>ATOM
      1 C           4.2686    5.7751    7.4708 C.3     1  UNL1       -0.0313
      2 C           3.6221    7.0880    7.4162 C.2     1  UNL1       -0.0876
      3 C           3.7988    7.9378    6.3537 C.2     1  UNL1       -0.0876
      4 C           4.6899    7.5947    5.2305 C.3     1  UNL1       -0.0313
      5 H           4.0163    5.2019    8.3673 H       1  UNL1        0.0310
      6 H           5.3620    5.8168    7.3357 H       1  UNL1        0.0310
      7 H           2.9334    7.3720    8.2164 H       1  UNL1        0.0569
      8 H           3.2601    8.8881    6.3368 H       1  UNL1        0.0569
      9 H           4.7319    8.3837    4.4712 H       1  UNL1        0.0310
     10 H           5.7156    7.3458    5.5563 H       1  UNL1        0.0310
@<TRIPOS>BOND
     1     9     4    1
     2     4    10    1
     3     4     3    1
     4     8     3    1
     5     3     2    2
     6     6     1    1
     7     2     1    1
     8     2     7    1
     9     1     5    1
