@<TRIPOS>MOLECULE
1,3,7,9
 15 16 0 0 0
SMALL
GASTEIGER

@<TRIPOS>ATOM
      1 C          -4.5355   -4.4000   -0.9295 C.3     1  UNL1       -0.0312
      2 H          -5.5100   -4.6965   -0.5747 H       1  UNL1        0.0309
      3 C          -3.7475   -5.1002   -1.8115 C.3     1  UNL1       -0.0312
      4 H          -3.9859   -6.0408   -2.2777 H       1  UNL1        0.0309
      5 C          -2.3215   -4.6135   -1.6039 C.3     1  UNL1       -0.0340
      6 H          -1.5275   -5.2433   -1.9956 H       1  UNL1        0.0307
      7 C          -2.4450   -3.2142   -2.1949 C.3     1  UNL1       -0.0312
      8 H          -1.6377   -2.8051   -2.7848 H       1  UNL1        0.0309
      9 C          -3.2543   -2.4806   -1.2833 C.3     1  UNL1       -0.0312
     10 H          -3.1432   -1.4253   -1.0690 H       1  UNL1        0.0309
     11 C          -3.6026   -3.4650   -0.1681 C.3     1  UNL1       -0.0340
     12 H          -3.9783   -3.0413    0.7593 H       1  UNL1        0.0307
     13 C          -2.3260   -4.3163   -0.0971 C.3     1  UNL1       -0.0463
     14 H          -2.4398   -5.2103    0.5159 H       1  UNL1        0.0271
     15 H          -1.4537   -3.7519    0.2299 H       1  UNL1        0.0271
@<TRIPOS>BOND
     1     8     7    1
     2     4     3    1
     3     7     5    1
     4     7     9    1
     5     6     5    1
     6     3     5    1
     7     3     1    1
     8     5    13    1
     9     9    10    1
    10     9    11    1
    11     1     2    1
    12     1    11    1
    13    11    13    1
    14    11    12    1
    15    13    15    1
    16    13    14    1
