@<TRIPOS>MOLECULE
5,6,11,12
 71 74 0 0 0
SMALL
GASTEIGER

@<TRIPOS>ATOM
      1 SI          4.8680    0.1784    2.6388 Si      1  UNL1        0.0000
      2 SI          7.8459    5.0870    7.6693 Si      1  UNL1        0.0000
      3 C           2.7550    3.3551    4.3079 C.3     1  UNL1        0.0000
      4 C           1.6026    3.0908    5.2408 C.2     1  UNL1        0.0000
      5 C           1.4528    1.9332    5.9443 C.2     1  UNL1        0.0000
      6 C           2.2127    0.7395    5.7971 C.3     1  UNL1        0.0000
      7 C           3.6133    0.6792    5.2096 C.3     1  UNL1        0.0000
      8 C           4.6913    1.4722    5.9771 C.3     1  UNL1        0.0000
      9 C           4.3496    2.9291    6.2971 C.3     1  UNL1        0.0000
     10 C           4.0683    3.7375    5.0374 C.3     1  UNL1        0.0000
     11 C           2.9011    2.1966    3.3312 C.3     1  UNL1        0.0000
     12 C           3.5107    0.9577    3.7087 C.3     1  UNL1        0.0000
     13 C           5.4800    3.4906    7.1345 C.2     1  UNL1        0.0000
     14 C           6.4537    4.2778    6.6785 C.2     1  UNL1        0.0000
     15 C           2.9371    2.5842    1.9116 C.ar    1  UNL1        0.0000
     16 C           3.5244    3.7706    1.4580 C.ar    1  UNL1        0.0000
     17 C           3.4943    4.1149    0.1195 C.ar    1  UNL1        0.0000
     18 C           2.8812    3.2886   -0.8077 C.ar    1  UNL1        0.0000
     19 C           2.3070    2.1014   -0.3799 C.ar    1  UNL1        0.0000
     20 C           2.3367    1.7570    0.9577 C.ar    1  UNL1        0.0000
     21 C           5.4512    3.0379    8.5401 C.ar    1  UNL1        0.0000
     22 C           4.4251    3.4257    9.3946 C.ar    1  UNL1        0.0000
     23 C           4.4059    2.9966   10.7090 C.ar    1  UNL1        0.0000
     24 C           5.4019    2.1591   11.1827 C.ar    1  UNL1        0.0000
     25 C           6.4181    1.7531   10.3343 C.ar    1  UNL1        0.0000
     26 C           6.4432    2.1913    9.0229 C.ar    1  UNL1        0.0000
     27 C           6.2778    1.4615    2.4036 C.3     1  UNL1        0.0000
     28 C           4.4905   -0.4331    0.8574 C.3     1  UNL1        0.0000
     29 C           5.6153   -1.3388    3.5448 C.3     1  UNL1        0.0000
     30 C           7.3235    5.5807    9.4363 C.3     1  UNL1        0.0000
     31 C           9.4038    3.9817    7.7530 C.3     1  UNL1        0.0000
     32 C           8.2970    6.6759    6.7072 C.3     1  UNL1        0.0000
     33 H           2.4862    4.2361    3.7141 H       1  UNL1        0.0000
     34 H           0.9970    3.9489    5.5179 H       1  UNL1        0.0000
     35 H           0.6197    1.8821    6.6517 H       1  UNL1        0.0000
     36 H           2.0326    0.0025    6.5822 H       1  UNL1        0.0000
     37 H           3.9275   -0.3689    5.3030 H       1  UNL1        0.0000
     38 H           5.6167    1.4431    5.3964 H       1  UNL1        0.0000
     39 H           4.8762    0.9554    6.9245 H       1  UNL1        0.0000
     40 H           3.4504    2.9349    6.9241 H       1  UNL1        0.0000
     41 H           4.8893    3.6143    4.3288 H       1  UNL1        0.0000
     42 H           4.0107    4.7937    5.3187 H       1  UNL1        0.0000
     43 H           6.4279    4.5469    5.6300 H       1  UNL1        0.0000
     44 H           4.0216    4.4292    2.1554 H       1  UNL1        0.0000
     45 H           3.9573    5.0362   -0.2056 H       1  UNL1        0.0000
     46 H           2.8541    3.5646   -1.8514 H       1  UNL1        0.0000
     47 H           1.8314    1.4455   -1.0969 H       1  UNL1        0.0000
     48 H           1.8850    0.8294    1.3021 H       1  UNL1        0.0000
     49 H           3.6500    4.0854    9.0309 H       1  UNL1        0.0000
     50 H           3.6112    3.3158   11.3681 H       1  UNL1        0.0000
     51 H           5.3848    1.8227   12.2091 H       1  UNL1        0.0000
     52 H           7.1937    1.0938   10.6974 H       1  UNL1        0.0000
     53 H           7.2295    1.8737    8.3548 H       1  UNL1        0.0000
     54 H           6.7164    1.7775    3.3450 H       1  UNL1        0.0000
     55 H           7.0746    1.0410    1.7981 H       1  UNL1        0.0000
     56 H           5.9132    2.3478    1.8933 H       1  UNL1        0.0000
     57 H           4.4927    0.3932    0.1550 H       1  UNL1        0.0000
     58 H           5.2675   -1.1260    0.5473 H       1  UNL1        0.0000
     59 H           3.5398   -0.9459    0.7571 H       1  UNL1        0.0000
     60 H           6.3692   -1.8098    2.9220 H       1  UNL1        0.0000
     61 H           6.0957   -1.0596    4.4767 H       1  UNL1        0.0000
     62 H           4.8657   -2.0910    3.7709 H       1  UNL1        0.0000
     63 H           6.3590    6.0789    9.4357 H       1  UNL1        0.0000
     64 H           7.2415    4.7158   10.0859 H       1  UNL1        0.0000
     65 H           8.0448    6.2605    9.8807 H       1  UNL1        0.0000
     66 H           9.2919    3.1887    8.4854 H       1  UNL1        0.0000
     67 H           9.6144    3.5189    6.7933 H       1  UNL1        0.0000
     68 H          10.2768    4.5637    8.0333 H       1  UNL1        0.0000
     69 H           9.0939    7.2238    7.2006 H       1  UNL1        0.0000
     70 H           8.6348    6.4459    5.7014 H       1  UNL1        0.0000
     71 H           7.4455    7.3443    6.6219 H       1  UNL1        0.0000
@<TRIPOS>BOND
     1    46    18    1
     2    47    19    1
     3    18    19   ar
     4    18    17   ar
     5    19    20   ar
     6    45    17    1
     7    17    16   ar
     8    57    28    1
     9    58    28    1
    10    59    28    1
    11    28     1    1
    12    20    48    1
    13    20    15   ar
    14    16    15   ar
    15    16    44    1
    16    55    27    1
    17    56    27    1
    18    15    11    1
    19    27     1    1
    20    27    54    1
    21     1    29    1
    22     1    12    1
    23    60    29    1
    24    11    12    1
    25    11     3    1
    26    29    62    1
    27    29    61    1
    28    12     7    1
    29    33     3    1
    30     3    10    1
    31     3     4    1
    32    41    10    1
    33    10    42    1
    34    10     9    1
    35     7    37    1
    36     7     6    1
    37     7     8    1
    38     4    34    1
    39     4     5    2
    40    38     8    1
    41    43    14    1
    42    70    32    1
    43     6     5    1
    44     6    36    1
    45     5    35    1
    46     8     9    1
    47     8    39    1
    48     9    40    1
    49     9    13    1
    50    71    32    1
    51    14    13    2
    52    14     2    1
    53    32    69    1
    54    32     2    1
    55    67    31    1
    56    13    21    1
    57     2    31    1
    58     2    30    1
    59    31    68    1
    60    31    66    1
    61    53    26    1
    62    21    26   ar
    63    21    22   ar
    64    26    25   ar
    65    49    22    1
    66    22    23   ar
    67    63    30    1
    68    30    65    1
    69    30    64    1
    70    25    52    1
    71    25    24   ar
    72    23    24   ar
    73    23    50    1
    74    24    51    1
