@<TRIPOS>MOLECULE
1,4,5,8
 20 20 0 0 0
SMALL
GASTEIGER

@<TRIPOS>ATOM
      1 C          -5.7993   -0.0086    5.5886 C.3     1  UNL1       -0.0348
      2 C          -5.1611   -1.3661    5.4165 C.3     1  UNL1       -0.0494
      3 C          -3.6377   -1.2648    5.2339 C.3     1  UNL1       -0.0494
      4 C          -3.2047   -0.0158    4.5034 C.3     1  UNL1       -0.0348
      5 C          -3.8039    0.5076    3.3582 C.3     1  UNL1       -0.0348
      6 C          -4.9316   -0.1775    2.6132 C.3     1  UNL1       -0.0494
      7 C          -6.3299    0.2526    3.1037 C.3     1  UNL1       -0.0494
      8 C          -6.3436    0.7123    4.5433 C.3     1  UNL1       -0.0348
      9 H          -5.3636   -1.9640    6.3066 H       1  UNL1        0.0268
     10 H          -5.6173   -1.8727    4.5646 H       1  UNL1        0.0268
     11 H          -3.1696   -1.2560    6.2230 H       1  UNL1        0.0268
     12 H          -3.2602   -2.1463    4.7022 H       1  UNL1        0.0268
     13 H          -4.8091   -1.2576    2.7095 H       1  UNL1        0.0268
     14 H          -4.8453    0.0595    1.5511 H       1  UNL1        0.0268
     15 H          -7.0375   -0.5756    2.9861 H       1  UNL1        0.0268
     16 H          -6.6905    1.0751    2.4835 H       1  UNL1        0.0268
     17 H          -6.1236    0.2179    6.6031 H       1  UNL1        0.0306
     18 H          -7.1170    1.4442    4.7719 H       1  UNL1        0.0306
     19 H          -2.1516    0.2186    4.6681 H       1  UNL1        0.0306
     20 H          -3.1843    1.1535    2.7351 H       1  UNL1        0.0306
@<TRIPOS>BOND
     1    14     6    1
     2    16     7    1
     3     6    13    1
     4     6     7    1
     5     6     5    1
     6    20     5    1
     7    15     7    1
     8     7     8    1
     9     5     4    1
    10     4    19    1
    11     4     3    1
    12     8    18    1
    13     8     1    1
    14    10     2    1
    15    12     3    1
    16     3     2    1
    17     3    11    1
    18     2     1    1
    19     2     9    1
    20     1    17    1
