@<TRIPOS>MOLECULE
2,4,8,10
 22 22 0 0 0
SMALL
GASTEIGER

@<TRIPOS>ATOM
      1 SI         -5.2070    5.5963   -2.4522 Si      1  UNL1        0.0000
      2 C          -7.2597    7.7050   -2.2727 C.2     1  UNL1        0.0000
      3 H          -7.7078    7.2877   -1.3779 H       1  UNL1        0.0000
      4 C          -7.9348    8.4717   -3.2261 C.2     1  UNL1        0.0000
      5 H          -8.9229    8.8930   -3.1200 H       1  UNL1        0.0000
      6 C          -7.1391    8.5440   -4.3819 C.2     1  UNL1        0.0000
      7 H          -7.4072    9.0468   -5.2970 H       1  UNL1        0.0000
      8 C          -5.9704    7.8307   -4.1597 C.2     1  UNL1        0.0000
      9 H          -5.2245    7.6104   -4.9097 H       1  UNL1        0.0000
     10 C          -5.9948    7.2662   -2.8390 C.3     1  UNL1        0.0000
     11 C          -4.8651    4.6935   -4.1054 C.3     1  UNL1        0.0000
     12 H          -5.7518    4.6739   -4.7298 H       1  UNL1        0.0000
     13 H          -4.5587    3.6666   -3.9327 H       1  UNL1        0.0000
     14 H          -4.0762    5.1788   -4.6717 H       1  UNL1        0.0000
     15 C          -6.4160    4.5249   -1.4294 C.3     1  UNL1        0.0000
     16 H          -7.3571    4.3922   -1.9528 H       1  UNL1        0.0000
     17 H          -6.6373    4.9708   -0.4650 H       1  UNL1        0.0000
     18 H          -5.9978    3.5404   -1.2446 H       1  UNL1        0.0000
     19 C          -3.5295    5.6472   -1.5157 C.3     1  UNL1        0.0000
     20 H          -3.6676    5.5910   -0.4411 H       1  UNL1        0.0000
     21 H          -2.9741    6.5550   -1.7277 H       1  UNL1        0.0000
     22 H          -2.9086    4.8043   -1.8045 H       1  UNL1        0.0000
@<TRIPOS>BOND
     1     7     6    1
     2     9     8    1
     3    12    11    1
     4    14    11    1
     5     6     8    2
     6     6     4    1
     7     8    10    1
     8    11    13    1
     9    11     1    1
    10     4     5    1
    11     4     2    2
    12    10     1    1
    13    10     2    1
    14     1    19    1
    15     1    15    1
    16     2     3    1
    17    16    15    1
    18    22    19    1
    19    21    19    1
    20    19    20    1
    21    15    18    1
    22    15    17    1
