@<TRIPOS>MOLECULE
8,9,10,11
 47 50 0 0 0
SMALL
GASTEIGER

@<TRIPOS>ATOM
      1 SI          4.9041    3.8155    9.5205 Si      1  UNL1        0.0000
      2 C           4.7439    1.1636    4.0940 C.2     1  UNL1        0.0000
      3 C           5.9926    0.9384    4.5404 C.2     1  UNL1        0.0000
      4 C           6.3495    0.6948    5.9405 C.2     1  UNL1        0.0000
      5 C           5.2196    0.6057    6.9618 C.3     1  UNL1        0.0000
      6 C           3.9704    1.3618    6.5186 C.3     1  UNL1        0.0000
      7 C           2.6143    0.9638    7.1664 C.3     1  UNL1        0.0000
      8 C           2.5935   -0.4017    7.8273 C.3     1  UNL1        0.0000
      9 C           2.5871   -1.5658    6.9977 C.2     1  UNL1        0.0000
     10 C           1.6478   -1.5455    5.9588 C.2     1  UNL1        0.0000
     11 C           0.8599   -0.3501    5.8959 C.3     1  UNL1        0.0000
     12 C           1.6382    0.9582    5.9606 C.3     1  UNL1        0.0000
     13 N           2.4340    1.0431    4.7566 N.3     1  UNL1        0.0000
     14 C           3.6604    1.1828    5.0567 C.3     1  UNL1        0.0000
     15 C           5.6224    1.3085    8.2586 C.3     1  UNL1        0.0000
     16 C           5.3835    2.7963    7.9651 C.3     1  UNL1        0.0000
     17 C           4.3396    2.8298    6.8270 C.3     1  UNL1        0.0000
     18 C           3.2250    3.2355   10.2231 C.3     1  UNL1        0.0000
     19 C           4.7799    5.6534    9.0276 C.3     1  UNL1        0.0000
     20 C           6.2621    3.5721   10.8345 C.3     1  UNL1        0.0000
     21 C           4.4005    1.3691    2.6598 C.3     1  UNL1        0.0000
     22 O           7.5054    0.5311    6.2726 O.2     1  UNL1        0.0000
     23 H           6.8259    0.9149    3.8506 H       1  UNL1        0.0000
     24 H           5.0323   -0.4629    7.1074 H       1  UNL1        0.0000
     25 H           2.3273    1.7121    7.9052 H       1  UNL1        0.0000
     26 H           3.2232   -0.4508    8.7140 H       1  UNL1        0.0000
     27 H           3.2104   -2.4325    7.1917 H       1  UNL1        0.0000
     28 H           1.5174   -2.3783    5.2780 H       1  UNL1        0.0000
     29 H           0.0900   -0.3256    5.1285 H       1  UNL1        0.0000
     30 H           0.9414    1.8026    5.9724 H       1  UNL1        0.0000
     31 H           4.9948    0.9603    9.0795 H       1  UNL1        0.0000
     32 H           6.6620    1.1059    8.5106 H       1  UNL1        0.0000
     33 H           6.3178    3.2016    7.5672 H       1  UNL1        0.0000
     34 H           3.4505    3.4030    7.0873 H       1  UNL1        0.0000
     35 H           4.7700    3.2945    5.9371 H       1  UNL1        0.0000
     36 H           2.3971    3.5071    9.5747 H       1  UNL1        0.0000
     37 H           3.1914    2.1597   10.3692 H       1  UNL1        0.0000
     38 H           3.0380    3.6965   11.1882 H       1  UNL1        0.0000
     39 H           5.7255    6.0245    8.6448 H       1  UNL1        0.0000
     40 H           4.0305    5.8147    8.2587 H       1  UNL1        0.0000
     41 H           4.5093    6.2672    9.8808 H       1  UNL1        0.0000
     42 H           7.2363    3.8626   10.4536 H       1  UNL1        0.0000
     43 H           6.0642    4.1709   11.7180 H       1  UNL1        0.0000
     44 H           6.3307    2.5357   11.1498 H       1  UNL1        0.0000
     45 H           5.2477    1.1557    2.0139 H       1  UNL1        0.0000
     46 H           3.5575    0.7325    2.4001 H       1  UNL1        0.0000
     47 H           4.0819    2.3993    2.5039 H       1  UNL1        0.0000
@<TRIPOS>BOND
     1    45    21    1
     2    46    21    1
     3    47    21    1
     4    21     2    1
     5    23     3    1
     6     2     3    2
     7     2    14    1
     8     3     4    1
     9    13    14    1
    10    13    12    1
    11    14     6    1
    12    29    11    1
    13    28    10    1
    14    11    10    1
    15    11    12    1
    16    35    17    1
    17     4    22    2
    18     4     5    1
    19    10     9    2
    20    12    30    1
    21    12     7    1
    22     6    17    1
    23     6     5    1
    24     6     7    1
    25    17    34    1
    26    17    16    1
    27     5    24    1
    28     5    15    1
    29     9    27    1
    30     9     8    1
    31     7     8    1
    32     7    25    1
    33    33    16    1
    34     8    26    1
    35    16    15    1
    36    16     1    1
    37    15    32    1
    38    15    31    1
    39    40    19    1
    40    39    19    1
    41    19     1    1
    42    19    41    1
    43     1    18    1
    44     1    20    1
    45    36    18    1
    46    18    37    1
    47    18    38    1
    48    42    20    1
    49    20    44    1
    50    20    43    1
