@<TRIPOS>MOLECULE
1,2,3,4
 10 9 0 0 0
SMALL
GASTEIGER

@<TRIPOS>ATOM
      1 C           3.5739    5.1018    5.7416 C.3     1  UNL1       -0.0313
      2 C           4.8167    4.3873    5.5029 C.2     1  UNL1       -0.0876
      3 C           5.4179    4.5655    4.2532 C.2     1  UNL1       -0.0876
      4 C           4.7445    5.3807    3.2949 C.3     1  UNL1       -0.0313
      5 H           3.0923    4.8658    6.6895 H       1  UNL1        0.0310
      6 H           3.5890    6.1779    5.5731 H       1  UNL1        0.0310
      7 H           5.2567    3.7405    6.2551 H       1  UNL1        0.0569
      8 H           6.2939    3.9909    3.9757 H       1  UNL1        0.0569
      9 H           5.1661    5.3748    2.2963 H       1  UNL1        0.0310
     10 H           4.4310    6.3783    3.5927 H       1  UNL1        0.0310
@<TRIPOS>BOND
     1     9     4    1
     2     4    10    1
     3     4     3    1
     4     8     3    1
     5     3     2    2
     6     2     1    1
     7     2     7    1
     8     6     1    1
     9     1     5    1
