@<TRIPOS>MOLECULE
1,2,3,4
 25 25 0 0 0
SMALL
GASTEIGER

@<TRIPOS>ATOM
      1 C           7.3750    7.0418    2.3087 C.2     1  UNL1       -0.0584
      2 C           6.5439    5.9292    1.9537 C.3     1  UNL1        0.0231
      3 C           5.7356    6.3357    0.8549 C.2     1  UNL1       -0.0584
      4 C           6.0648    7.6813    0.5378 C.2     1  UNL1       -0.0477
      5 C           7.0830    8.1015    1.4219 C.2     1  UNL1       -0.0477
      6 C           8.5302    7.0281    3.2653 C.3     1  UNL1       -0.0424
      7 H           8.5809    7.9667    3.8149 H       1  UNL1        0.0275
      8 H           9.4693    6.9022    2.7210 H       1  UNL1        0.0275
      9 H           8.4433    6.2132    3.9799 H       1  UNL1        0.0275
     10 C           6.7289    4.5000    2.3779 C.3     1  UNL1       -0.0510
     11 H           5.7642    4.0057    2.4897 H       1  UNL1        0.0242
     12 H           7.2626    4.4344    3.3237 H       1  UNL1        0.0242
     13 H           7.3050    3.9536    1.6276 H       1  UNL1        0.0242
     14 C           4.8512    5.4081    0.0779 C.3     1  UNL1       -0.0424
     15 H           4.2173    5.9540   -0.6169 H       1  UNL1        0.0275
     16 H           4.2109    4.8437    0.7554 H       1  UNL1        0.0275
     17 H           5.4511    4.6973   -0.4947 H       1  UNL1        0.0275
     18 C           5.5536    8.4817   -0.6203 C.3     1  UNL1       -0.0395
     19 H           6.3176    8.5495   -1.3980 H       1  UNL1        0.0278
     20 H           5.2959    9.4931   -0.3088 H       1  UNL1        0.0278
     21 H           4.6713    8.0210   -1.0579 H       1  UNL1        0.0278
     22 C           7.7163    9.4553    1.4623 C.3     1  UNL1       -0.0395
     23 H           7.2890   10.0294    2.2881 H       1  UNL1        0.0278
     24 H           7.5385    9.9966    0.5364 H       1  UNL1        0.0278
     25 H           8.7912    9.3775    1.6205 H       1  UNL1        0.0278
@<TRIPOS>BOND
     1    19    18    1
     2    21    18    1
     3    18    20    1
     4    18     4    1
     5    15    14    1
     6    17    14    1
     7    14    16    1
     8    14     3    1
     9    24    22    1
    10     4     3    2
    11     4     5    1
    12     3     2    1
    13     5    22    1
    14     5     1    2
    15    22    25    1
    16    22    23    1
    17    13    10    1
    18     2     1    1
    19     2    10    1
    20     1     6    1
    21    10    11    1
    22    10    12    1
    23     8     6    1
    24     6     7    1
    25     6     9    1
