@<TRIPOS>MOLECULE
1,2,3,4
 25 25 0 0 0
SMALL
GASTEIGER

@<TRIPOS>ATOM
      1 C          15.5179   11.3807   12.3158 C.2     1  UNL1       -0.0658
      2 C          14.5584   12.3989   12.6628 C.3     1  UNL1        0.0052
      3 C          14.7887   12.6953   14.0645 C.3     1  UNL1       -0.0053
      4 C          15.8255   11.8445   14.5167 C.3     1  UNL1        0.0052
      5 C          16.2587   11.0430   13.4434 C.2     1  UNL1       -0.0658
      6 C          15.6815   10.8247   10.9378 C.3     1  UNL1       -0.0430
      7 C          14.1387   13.4436   11.6530 C.3     1  UNL1       -0.0545
      8 C          14.3850   13.9604   14.7782 C.3     1  UNL1       -0.0574
      9 C          16.3503   11.8768   15.9145 C.3     1  UNL1       -0.0545
     10 C          17.3253    9.9915   13.4763 C.3     1  UNL1       -0.0430
     11 H          16.1750   11.5507   10.2880 H       1  UNL1        0.0275
     12 H          16.2850    9.9200   10.9544 H       1  UNL1        0.0275
     13 H          14.7078   10.5943   10.5036 H       1  UNL1        0.0275
     14 H          14.9608   14.1421   11.4824 H       1  UNL1        0.0239
     15 H          13.8895   12.9734   10.7052 H       1  UNL1        0.0239
     16 H          13.2768   14.0102   11.9950 H       1  UNL1        0.0239
     17 H          15.2149   14.6704   14.7797 H       1  UNL1        0.0236
     18 H          13.5313   14.4312   14.2960 H       1  UNL1        0.0236
     19 H          14.1183   13.7483   15.8134 H       1  UNL1        0.0236
     20 H          16.8250   12.8382   16.1177 H       1  UNL1        0.0239
     21 H          15.5294   11.7570   16.6204 H       1  UNL1        0.0239
     22 H          17.0792   11.0919   16.0935 H       1  UNL1        0.0239
     23 H          18.0449   10.1532   12.6738 H       1  UNL1        0.0275
     24 H          17.8671   10.0124   14.4181 H       1  UNL1        0.0275
     25 H          16.8913    8.9981   13.3497 H       1  UNL1        0.0275
@<TRIPOS>BOND
     1    11     6    1
     2    13     6    1
     3    15     7    1
     4     6    12    1
     5     6     1    1
     6    14     7    1
     7     7    16    1
     8     7     2    1
     9     1     2    1
    10     1     5    2
    11     2     3    1
    12    23    10    1
    13    25    10    1
    14     5    10    1
    15     5     4    1
    16    10    24    1
    17     3     4    1
    18     3     8    1
    19    18     8    1
    20     4     9    1
    21     8    17    1
    22     8    19    1
    23     9    22    1
    24     9    20    1
    25     9    21    1
