@<TRIPOS>MOLECULE
3,4,5,6
 32 31 0 0 0
SMALL
GASTEIGER

@<TRIPOS>ATOM
      1 SI          3.9526    8.3375    5.7685 Si      1  UNL1        0.0000
      2 SI          3.7176    1.6285    5.0473 Si      1  UNL1        0.0000
      3 C           4.3503    6.7533    4.8388 C.3     1  UNL1        0.0000
      4 C           3.6364    5.5832    5.2102 C.3     1  UNL1        0.0000
      5 C           3.5933    4.4009    5.5929 C.3     1  UNL1        0.0000
      6 C           4.2116    3.1834    5.9801 C.3     1  UNL1        0.0000
      7 C           5.5515    9.4016    5.8830 C.3     1  UNL1        0.0000
      8 C           2.6551    9.4528    4.8986 C.3     1  UNL1        0.0000
      9 C           3.2398    7.9127    7.4988 C.3     1  UNL1        0.0000
     10 C           3.0816    2.0932    3.2976 C.3     1  UNL1        0.0000
     11 C           2.3177    0.6229    5.8920 C.3     1  UNL1        0.0000
     12 C           5.2302    0.4421    4.9780 C.3     1  UNL1        0.0000
     13 H           4.3152    6.9233    3.7532 H       1  UNL1        0.0000
     14 H           4.1433    3.0197    7.0651 H       1  UNL1        0.0000
     15 H           6.4514    8.8002    5.9894 H       1  UNL1        0.0000
     16 H           5.6664   10.0129    4.9930 H       1  UNL1        0.0000
     17 H           5.5072   10.0798    6.7296 H       1  UNL1        0.0000
     18 H           2.4822   10.3678    5.4570 H       1  UNL1        0.0000
     19 H           2.9841    9.7365    3.9032 H       1  UNL1        0.0000
     20 H           1.7006    8.9454    4.7945 H       1  UNL1        0.0000
     21 H           3.7588    8.4261    8.3026 H       1  UNL1        0.0000
     22 H           2.1932    8.1942    7.5618 H       1  UNL1        0.0000
     23 H           3.3005    6.8430    7.6887 H       1  UNL1        0.0000
     24 H           2.0183    1.8926    3.2111 H       1  UNL1        0.0000
     25 H           3.2289    3.1533    3.1021 H       1  UNL1        0.0000
     26 H           3.5784    1.5346    2.5103 H       1  UNL1        0.0000
     27 H           1.4043    1.2045    5.9742 H       1  UNL1        0.0000
     28 H           2.0847   -0.2782    5.3327 H       1  UNL1        0.0000
     29 H           2.6021    0.3185    6.8950 H       1  UNL1        0.0000
     30 H           5.3047   -0.1326    5.8965 H       1  UNL1        0.0000
     31 H           5.1258   -0.2709    4.1657 H       1  UNL1        0.0000
     32 H           6.1733    0.9655    4.8383 H       1  UNL1        0.0000
@<TRIPOS>BOND
     1    26    10    1
     2    25    10    1
     3    24    10    1
     4    10     2    1
     5    13     3    1
     6    19     8    1
     7    31    12    1
     8    20     8    1
     9    32    12    1
    10     3     4    1
    11     3     1    1
    12     8    18    1
    13     8     1    1
    14    12     2    1
    15    12    30    1
    16    16     7    1
    17     2    11    1
    18     2     6    1
    19     4     5    1
    20    28    11    1
    21     5     6    1
    22     1     7    1
    23     1     9    1
    24     7    15    1
    25     7    17    1
    26    11    27    1
    27    11    29    1
    28     6    14    1
    29     9    22    1
    30     9    23    1
    31     9    21    1
