@<TRIPOS>MOLECULE
3,5,6,7
 32 31 0 0 0
SMALL
GASTEIGER

@<TRIPOS>ATOM
      1 SI          4.9959    2.6199    5.6926 Si      1  UNL1        0.0000
      2 SI         -1.3034    1.7994    3.1348 Si      1  UNL1        0.0000
      3 C           3.7487    1.8728    4.4802 C.3     1  UNL1        0.0000
      4 H           4.0035    0.8171    4.3263 H       1  UNL1        0.0000
      5 C           2.3749    2.0391    4.7478 C.3     1  UNL1        0.0000
      6 C           1.2113    2.2910    4.3765 C.3     1  UNL1        0.0000
      7 C           0.2951    2.7725    3.4203 C.3     1  UNL1        0.0000
      8 H           0.0343    3.8214    3.6084 H       1  UNL1        0.0000
      9 C           4.3070    4.1922    6.5424 C.3     1  UNL1        0.0000
     10 H           3.2894    4.3967    6.2231 H       1  UNL1        0.0000
     11 H           4.9046    5.0724    6.3270 H       1  UNL1        0.0000
     12 H           4.2908    4.0709    7.6210 H       1  UNL1        0.0000
     13 C           6.6328    2.9609    4.7584 C.3     1  UNL1        0.0000
     14 H           7.1602    2.0330    4.5600 H       1  UNL1        0.0000
     15 H           7.2930    3.5847    5.3529 H       1  UNL1        0.0000
     16 H           6.4783    3.4569    3.8055 H       1  UNL1        0.0000
     17 C           5.4044    1.3651    7.0827 C.3     1  UNL1        0.0000
     18 H           4.5204    1.1108    7.6600 H       1  UNL1        0.0000
     19 H           6.1423    1.7665    7.7707 H       1  UNL1        0.0000
     20 H           5.8064    0.4417    6.6765 H       1  UNL1        0.0000
     21 C          -1.0716   -0.0679    3.4934 C.3     1  UNL1        0.0000
     22 H          -0.0592   -0.2814    3.8235 H       1  UNL1        0.0000
     23 H          -1.2723   -0.6821    2.6211 H       1  UNL1        0.0000
     24 H          -1.7452   -0.3956    4.2791 H       1  UNL1        0.0000
     25 C          -2.6804    2.4310    4.3091 C.3     1  UNL1        0.0000
     26 H          -2.4083    2.2918    5.3512 H       1  UNL1        0.0000
     27 H          -3.6144    1.9038    4.1399 H       1  UNL1        0.0000
     28 H          -2.8727    3.4893    4.1601 H       1  UNL1        0.0000
     29 C          -1.9165    2.1198    1.3493 C.3     1  UNL1        0.0000
     30 H          -2.2607    3.1437    1.2399 H       1  UNL1        0.0000
     31 H          -2.7538    1.4717    1.1095 H       1  UNL1        0.0000
     32 H          -1.1467    1.9542    0.6026 H       1  UNL1        0.0000
@<TRIPOS>BOND
     1    32    29    1
     2    31    29    1
     3    30    29    1
     4    29     2    1
     5    23    21    1
     6     2     7    1
     7     2    21    1
     8     2    25    1
     9     7     8    1
    10     7     6    1
    11    21    22    1
    12    21    24    1
    13    16    13    1
    14    27    25    1
    15    28    25    1
    16    25    26    1
    17     4     3    1
    18     6     5    1
    19     3     5    1
    20     3     1    1
    21    14    13    1
    22    13    15    1
    23    13     1    1
    24     1     9    1
    25     1    17    1
    26    10     9    1
    27    11     9    1
    28     9    12    1
    29    20    17    1
    30    17    18    1
    31    17    19    1
