@<TRIPOS>MOLECULE
1,3,11,13
 20 20 0 0 0
SMALL
GASTEIGER

@<TRIPOS>ATOM
      1 C           5.2232    5.0141    9.9524 C.3     1  UNL1       -0.0348
      2 H           4.3749    5.6325   10.2454 H       1  UNL1        0.0306
      3 C           5.6970    5.1333    8.6538 C.3     1  UNL1       -0.0348
      4 H           5.2248    5.8664    7.9939 H       1  UNL1        0.0306
      5 C           7.1217    4.8203    8.2526 C.3     1  UNL1       -0.0494
      6 H           7.7817    5.6065    8.6373 H       1  UNL1        0.0268
      7 H           7.1744    4.8535    7.1633 H       1  UNL1        0.0268
      8 C           7.6060    3.4378    8.7285 C.3     1  UNL1       -0.0494
      9 H           8.3014    3.0414    7.9866 H       1  UNL1        0.0268
     10 H           8.1505    3.5262    9.6710 H       1  UNL1        0.0268
     11 C           6.4775    2.4438    8.9128 C.3     1  UNL1       -0.0348
     12 H           6.5252    1.5858    8.2399 H       1  UNL1        0.0306
     13 C           5.8170    2.2723   10.1204 C.3     1  UNL1       -0.0348
     14 H           5.4116    1.2811   10.3456 H       1  UNL1        0.0306
     15 C           6.1066    3.0847   11.3614 C.3     1  UNL1       -0.0494
     16 H           7.0666    2.7650   11.7832 H       1  UNL1        0.0268
     17 H           5.3329    2.8542   12.0954 H       1  UNL1        0.0268
     18 C           6.1121    4.6031   11.1097 C.3     1  UNL1       -0.0494
     19 H           5.7612    5.1046   12.0133 H       1  UNL1        0.0268
     20 H           7.1271    4.9552   10.9143 H       1  UNL1        0.0268
@<TRIPOS>BOND
     1     7     5    1
     2     9     8    1
     3     4     3    1
     4    12    11    1
     5     5     6    1
     6     5     3    1
     7     5     8    1
     8     3     1    1
     9     8    11    1
    10     8    10    1
    11    11    13    1
    12     1     2    1
    13     1    18    1
    14    13    14    1
    15    13    15    1
    16    20    18    1
    17    18    15    1
    18    18    19    1
    19    15    16    1
    20    15    17    1
