@<TRIPOS>MOLECULE
1,3,5,6
 75 78 0 0 0
SMALL
GASTEIGER

@<TRIPOS>ATOM
      1 C           8.3689    2.9859    1.5025 C.3     1  UNL1        0.0000
      2 H           7.3166    2.8003    1.7138 H       1  UNL1        0.0000
      3 C           9.1047    3.5775    2.5919 C.2     1  UNL1        0.0000
      4 H           8.6389    3.8806    3.5212 H       1  UNL1        0.0000
      5 C          10.4630    3.8053    2.2988 C.2     1  UNL1        0.0000
      6 C          10.8792    3.2429    1.0428 C.3     1  UNL1        0.0000
      7 H          11.9541    3.2859    0.8741 H       1  UNL1        0.0000
      8 C          10.0769    3.6304   -0.1904 C.3     1  UNL1        0.0000
      9 H          10.2807    2.9214   -0.9947 H       1  UNL1        0.0000
     10 H          10.4075    4.6161   -0.5322 H       1  UNL1        0.0000
     11 C           8.5713    3.6414    0.1409 C.3     1  UNL1        0.0000
     12 H           8.2348    4.6796    0.2451 H       1  UNL1        0.0000
     13 O          11.3921    4.3566    3.1079 O.2     1  UNL1        0.0000
     14 C          11.0757    4.4995    4.4769 C.3     1  UNL1        0.0000
     15 H          11.9873    4.8443    4.9611 H       1  UNL1        0.0000
     16 H          10.7717    3.5370    4.9041 H       1  UNL1        0.0000
     17 H          10.2820    5.2363    4.6312 H       1  UNL1        0.0000
     18 C           7.7451    3.0175   -0.9599 C.ar    1  UNL1        0.0000
     19 C           7.3396    3.7725   -2.0552 C.ar    1  UNL1        0.0000
     20 C           6.5381    3.1898   -3.0331 C.ar    1  UNL1        0.0000
     21 H           6.2240    3.7988   -3.8655 H       1  UNL1        0.0000
     22 C           6.1322    1.8716   -2.9516 C.ar    1  UNL1        0.0000
     23 C           6.5693    1.0943   -1.8581 C.ar    1  UNL1        0.0000
     24 C           7.3618    1.6810   -0.8889 C.ar    1  UNL1        0.0000
     25 H           7.6766    1.1050   -0.0345 H       1  UNL1        0.0000
     26 C           7.6431    5.2433   -2.1509 C.3     1  UNL1        0.0000
     27 H           8.7013    5.4464   -1.9612 H       1  UNL1        0.0000
     28 H           7.3950    5.6166   -3.1491 H       1  UNL1        0.0000
     29 O           6.9123    5.9661   -1.1824 O.3     1  UNL1        0.0000
     30 SI          5.3440    6.4339   -1.2670 Si      1  UNL1        0.0000
     31 C           5.1336    7.5124   -2.8223 C.ar    1  UNL1        0.0000
     32 C           5.1122    8.9034   -2.8119 C.ar    1  UNL1        0.0000
     33 H           5.1627    9.4299   -1.8714 H       1  UNL1        0.0000
     34 C           5.0245    9.6349   -3.9835 C.ar    1  UNL1        0.0000
     35 H           5.0059   10.7148   -3.9438 H       1  UNL1        0.0000
     36 C           4.9623    8.9866   -5.2044 C.ar    1  UNL1        0.0000
     37 H           4.8959    9.5549   -6.1207 H       1  UNL1        0.0000
     38 C           4.9827    7.6028   -5.2413 C.ar    1  UNL1        0.0000
     39 H           4.9318    7.0857   -6.1893 H       1  UNL1        0.0000
     40 C           5.0646    6.8820   -4.0641 C.ar    1  UNL1        0.0000
     41 H           5.0599    5.8019   -4.1051 H       1  UNL1        0.0000
     42 C           4.1200    4.9904   -1.4665 C.ar    1  UNL1        0.0000
     43 C           2.9756    5.1063   -2.2533 C.ar    1  UNL1        0.0000
     44 H           2.7606    6.0476   -2.7391 H       1  UNL1        0.0000
     45 C           2.1148    4.0378   -2.4313 C.ar    1  UNL1        0.0000
     46 H           1.2384    4.1505   -3.0542 H       1  UNL1        0.0000
     47 C           2.3771    2.8245   -1.8173 C.ar    1  UNL1        0.0000
     48 H           1.7133    1.9851   -1.9649 H       1  UNL1        0.0000
     49 C           3.4958    2.6954   -1.0125 C.ar    1  UNL1        0.0000
     50 H           3.7063    1.7537   -0.5272 H       1  UNL1        0.0000
     51 C           4.3509    3.7683   -0.8393 C.ar    1  UNL1        0.0000
     52 H           5.2251    3.6521   -0.2173 H       1  UNL1        0.0000
     53 C           5.0893    7.2656    0.4432 C.3     1  UNL1        0.0000
     54 C           6.1686    8.3067    0.7402 C.3     1  UNL1        0.0000
     55 H           6.0278    8.7241    1.7377 H       1  UNL1        0.0000
     56 H           6.1404    9.1247    0.0259 H       1  UNL1        0.0000
     57 H           7.1542    7.8514    0.6926 H       1  UNL1        0.0000
     58 C           3.7116    7.9240    0.4914 C.3     1  UNL1        0.0000
     59 H           3.5353    8.3705    1.4699 H       1  UNL1        0.0000
     60 H           2.9318    7.1881    0.3074 H       1  UNL1        0.0000
     61 H           3.6204    8.7043   -0.2596 H       1  UNL1        0.0000
     62 C           5.1492    6.1968    1.5376 C.3     1  UNL1        0.0000
     63 H           5.0209    6.6542    2.5190 H       1  UNL1        0.0000
     64 H           6.1088    5.6859    1.5212 H       1  UNL1        0.0000
     65 H           4.3622    5.4589    1.4012 H       1  UNL1        0.0000
     66 O           5.3172    1.2457   -3.8438 O.3     1  UNL1        0.0000
     67 C           4.7096    2.0241   -4.8436 C.3     1  UNL1        0.0000
     68 H           4.0442    1.3477   -5.3777 H       1  UNL1        0.0000
     69 H           5.4462    2.4305   -5.5454 H       1  UNL1        0.0000
     70 H           4.1244    2.8433   -4.4113 H       1  UNL1        0.0000
     71 O           6.1435   -0.1970   -1.8376 O.3     1  UNL1        0.0000
     72 C           6.5884   -1.0299   -0.7952 C.3     1  UNL1        0.0000
     73 H           6.1557   -2.0083   -0.9980 H       1  UNL1        0.0000
     74 H           6.2425   -0.6780    0.1827 H       1  UNL1        0.0000
     75 H           7.6798   -1.1128   -0.7820 H       1  UNL1        0.0000
@<TRIPOS>BOND
     1    39    38    1
     2    37    36    1
     3    69    67    1
     4    68    67    1
     5    38    36   ar
     6    38    40   ar
     7    36    34   ar
     8    67    70    1
     9    67    66    1
    10    41    40    1
    11    40    31   ar
    12    34    35    1
    13    34    32   ar
    14    21    20    1
    15    66    22    1
    16    28    26    1
    17    46    45    1
    18    20    22   ar
    19    20    19   ar
    20    22    23   ar
    21    31    32   ar
    22    31    30    1
    23    32    33    1
    24    44    43    1
    25    45    43   ar
    26    45    47   ar
    27    43    42   ar
    28    26    19    1
    29    26    27    1
    30    26    29    1
    31    19    18   ar
    32    48    47    1
    33    23    71    1
    34    23    24   ar
    35    71    72    1
    36    47    49   ar
    37    42    30    1
    38    42    51   ar
    39    30    29    1
    40    30    53    1
    41    49    51   ar
    42    49    50    1
    43    73    72    1
    44     9     8    1
    45    18    24   ar
    46    18    11    1
    47    24    25    1
    48    51    52    1
    49    72    75    1
    50    72    74    1
    51    10     8    1
    52    61    58    1
    53     8    11    1
    54     8     6    1
    55    56    54    1
    56    11    12    1
    57    11     1    1
    58    60    58    1
    59    53    58    1
    60    53    54    1
    61    53    62    1
    62    58    59    1
    63    57    54    1
    64    54    55    1
    65     7     6    1
    66     6     5    1
    67    65    62    1
    68     1     2    1
    69     1     3    1
    70    64    62    1
    71    62    63    1
    72     5     3    2
    73     5    13    1
    74     3     4    1
    75    13    14    1
    76    14    17    1
    77    14    16    1
    78    14    15    1
