@<TRIPOS>MOLECULE
1,2,3,4
 16 17 0 0 0
SMALL
GASTEIGER

@<TRIPOS>ATOM
      1 C           1.4408   -0.1726    1.9738 C.ar    1  UNL1       -0.0325
      2 C           1.7662    0.5111    0.7556 C.3     1  UNL1        0.0133
      3 C           2.3842    1.7335    1.1132 C.2     1  UNL1       -0.0751
      4 C           2.5865    1.7577    2.5041 C.2     1  UNL1       -0.0576
      5 C           1.9527    0.6106    3.0625 C.ar    1  UNL1       -0.0215
      6 C           1.7384    0.1972    4.3852 C.ar    1  UNL1       -0.0543
      7 C           1.0404   -0.9644    4.6078 C.ar    1  UNL1       -0.0612
      8 C           0.5443   -1.7343    3.5441 C.ar    1  UNL1       -0.0614
      9 C           0.7338   -1.3555    2.2366 C.ar    1  UNL1       -0.0574
     10 H           1.3174    0.2958   -0.2039 H       1  UNL1        0.0400
     11 H           2.5759    2.5604    0.4376 H       1  UNL1        0.0579
     12 H           2.9493    2.6001    3.0794 H       1  UNL1        0.0621
     13 H           2.1165    0.7870    5.2092 H       1  UNL1        0.0624
     14 H           0.8629   -1.2982    5.6194 H       1  UNL1        0.0618
     15 H          -0.0033   -2.6383    3.7668 H       1  UNL1        0.0618
     16 H           0.3299   -1.9433    1.4221 H       1  UNL1        0.0621
@<TRIPOS>BOND
     1    10     2    1
     2    11     3    1
     3     2     3    1
     4     2     1    1
     5     3     4    2
     6    16     9    1
     7     1     9   ar
     8     1     5   ar
     9     9     8   ar
    10     4     5    1
    11     4    12    1
    12     5     6   ar
    13     8    15    1
    14     8     7   ar
    15     6     7   ar
    16     6    13    1
    17     7    14    1
