@<TRIPOS>MOLECULE
1,3,7,9
 10 10 0 0 0
SMALL
GASTEIGER

@<TRIPOS>ATOM
      1 C           9.6247   18.8172   -7.8150 C.2     1  UNL1       -0.0763
      2 H           8.6170   18.4759   -7.6147 H       1  UNL1        0.0578
      3 C           9.9715   20.1254   -8.2033 C.2     1  UNL1       -0.0654
      4 H           9.3016   20.9737   -8.2315 H       1  UNL1        0.0615
      5 C          11.3047   20.1199   -8.6298 C.2     1  UNL1       -0.0654
      6 H          11.8320   20.9597   -9.0582 H       1  UNL1        0.0615
      7 C          11.7907   18.8059   -8.5338 C.2     1  UNL1       -0.0763
      8 H          12.7386   18.4416   -8.9069 H       1  UNL1        0.0578
      9 C          10.7598   17.9867   -8.0331 C.3     1  UNL1        0.0054
     10 H          10.7888   16.9048   -8.0076 H       1  UNL1        0.0394
@<TRIPOS>BOND
     1     6     5    1
     2     8     7    1
     3     5     7    2
     4     5     3    1
     5     7     9    1
     6     4     3    1
     7     3     1    2
     8     9    10    1
     9     9     1    1
    10     1     2    1
