@<TRIPOS>MOLECULE
2,3,4,5
 25 25 0 0 0
SMALL
GASTEIGER

@<TRIPOS>ATOM
      1 C           0.1092    1.8794    0.4828 C.3     1  UNL1       -0.0127
      2 C          -0.7422    1.6173    1.5835 C.3     1  UNL1       -0.0127
      3 C           0.0693    1.3932    2.7402 C.3     1  UNL1       -0.0127
      4 C           1.4326    1.5656    2.3396 C.3     1  UNL1       -0.0127
      5 C           1.4381    1.9233    0.9622 C.3     1  UNL1       -0.0127
      6 C          -0.2946    1.7154   -0.9532 C.3     1  UNL1       -0.0580
      7 C          -2.1766    1.1830    1.4759 C.3     1  UNL1       -0.0580
      8 C          -0.3639    0.5364    3.8933 C.3     1  UNL1       -0.0580
      9 C           2.6135    0.9318    3.0225 C.3     1  UNL1       -0.0580
     10 C           2.6969    2.0454    0.1516 C.3     1  UNL1       -0.0580
     11 H           0.4657    2.0833   -1.6360 H       1  UNL1        0.0236
     12 H          -1.2397    2.1998   -1.1876 H       1  UNL1        0.0236
     13 H          -0.4246    0.6472   -1.1501 H       1  UNL1        0.0236
     14 H          -2.6299    1.5269    0.5495 H       1  UNL1        0.0236
     15 H          -2.7760    1.5379    2.3130 H       1  UNL1        0.0236
     16 H          -2.2221    0.0900    1.4810 H       1  UNL1        0.0236
     17 H          -1.3903    0.7427    4.1792 H       1  UNL1        0.0236
     18 H           0.2772    0.6736    4.7583 H       1  UNL1        0.0236
     19 H          -0.3011   -0.5145    3.5923 H       1  UNL1        0.0236
     20 H           2.5687    1.0145    4.1056 H       1  UNL1        0.0236
     21 H           2.6198   -0.1341    2.7745 H       1  UNL1        0.0236
     22 H           3.5554    1.3552    2.6794 H       1  UNL1        0.0236
     23 H           3.2174    1.0851    0.1231 H       1  UNL1        0.0236
     24 H           2.4882    2.3360   -0.8753 H       1  UNL1        0.0236
     25 H           3.3757    2.7807    0.5893 H       1  UNL1        0.0236
@<TRIPOS>BOND
     1    11     6    1
     2    12     6    1
     3    13     6    1
     4     6     1    1
     5    24    10    1
     6    23    10    1
     7    10    25    1
     8    10     5    1
     9     1     5    1
    10     1     2    1
    11    14     7    1
    12     5     4    1
    13     7    16    1
    14     7     2    1
    15     7    15    1
    16     2     3    1
    17     4     3    1
    18     4     9    1
    19    22     9    1
    20     3     8    1
    21    21     9    1
    22     9    20    1
    23    19     8    1
    24     8    17    1
    25     8    18    1
