@<TRIPOS>MOLECULE
10,11,12,13
 81 81 0 0 0
SMALL
GASTEIGER

@<TRIPOS>ATOM
      1 SI         18.4837   -0.2683    2.8854 Si      1  UNL1        0.0000
      2 SI         13.1134    0.8985    2.2776 Si      1  UNL1        0.0000
      3 O          11.8591    3.2088    9.3479 O.2     1  UNL1        0.0000
      4 O          10.5374    1.3910    9.2665 O.3     1  UNL1        0.0000
      5 O          17.3628   -0.6596    4.0135 O.3     1  UNL1        0.0000
      6 O          16.7325   -7.7002    3.3095 O.2     1  UNL1        0.0000
      7 O          13.8881   -0.1347    3.2782 O.3     1  UNL1        0.0000
      8 C           9.9087    1.8201   10.4646 C.3     1  UNL1        0.0000
      9 C          11.5272    2.1785    8.8078 C.2     1  UNL1        0.0000
     10 C          12.1437    1.6228    7.5882 C.3     1  UNL1        0.0000
     11 C          12.8660    2.5561    6.7677 C.3     1  UNL1        0.0000
     12 C          13.6290    2.0516    5.7096 C.3     1  UNL1        0.0000
     13 C          13.6847    0.6368    5.5369 C.3     1  UNL1        0.0000
     14 C          14.6049    0.0871    4.4691 C.3     1  UNL1        0.0000
     15 C          15.2319   -1.2499    4.8763 C.3     1  UNL1        0.0000
     16 C          16.3554   -1.6270    3.9017 C.3     1  UNL1        0.0000
     17 C          19.7368   -1.6837    2.6181 C.3     1  UNL1        0.0000
     18 C          17.6339    0.1000    1.2162 C.3     1  UNL1        0.0000
     19 C          19.2866    1.2915    3.6647 C.3     1  UNL1        0.0000
     20 C          19.9111    0.9540    5.0197 C.3     1  UNL1        0.0000
     21 C          20.3810    1.8249    2.7414 C.3     1  UNL1        0.0000
     22 C          18.2408    2.3891    3.8738 C.3     1  UNL1        0.0000
     23 C          16.8799   -3.0052    4.2135 C.ar    1  UNL1        0.0000
     24 C          17.8500   -3.1711    5.1957 C.ar    1  UNL1        0.0000
     25 C          18.3416   -4.4305    5.4976 C.ar    1  UNL1        0.0000
     26 C          17.8630   -5.5381    4.8258 C.ar    1  UNL1        0.0000
     27 C          16.8842   -5.3874    3.8424 C.ar    1  UNL1        0.0000
     28 C          16.3992   -4.1160    3.5411 C.ar    1  UNL1        0.0000
     29 C          16.3764   -6.5642    3.1274 C.2     1  UNL1        0.0000
     30 C          14.2226    2.3610    1.7440 C.3     1  UNL1        0.0000
     31 C          11.5308    1.6263    3.0645 C.3     1  UNL1        0.0000
     32 C          12.6781   -0.2653    0.8113 C.3     1  UNL1        0.0000
     33 C          11.9781    0.5287   -0.2909 C.3     1  UNL1        0.0000
     34 C          13.9385   -0.9058    0.2268 C.3     1  UNL1        0.0000
     35 C          11.7434   -1.3821    1.2809 C.3     1  UNL1        0.0000
     36 H          10.6482    1.9319   11.2602 H       1  UNL1        0.0000
     37 H           9.1833    1.0521   10.7200 H       1  UNL1        0.0000
     38 H           9.4125    2.7806   10.3107 H       1  UNL1        0.0000
     39 H          11.5269    0.8579    7.1257 H       1  UNL1        0.0000
     40 H          12.8363    3.6141    7.0033 H       1  UNL1        0.0000
     41 H          14.2345    2.7137    5.1005 H       1  UNL1        0.0000
     42 H          12.7436    0.0913    5.5296 H       1  UNL1        0.0000
     43 H          15.4155    0.8005    4.2726 H       1  UNL1        0.0000
     44 H          15.6497   -1.1648    5.8802 H       1  UNL1        0.0000
     45 H          14.4644   -2.0238    4.8697 H       1  UNL1        0.0000
     46 H          15.9486   -1.6144    2.8833 H       1  UNL1        0.0000
     47 H          20.4883   -1.4266    1.8792 H       1  UNL1        0.0000
     48 H          20.2535   -1.9400    3.5381 H       1  UNL1        0.0000
     49 H          19.2337   -2.5834    2.2732 H       1  UNL1        0.0000
     50 H          17.3674   -0.8204    0.7045 H       1  UNL1        0.0000
     51 H          16.7189    0.6648    1.3681 H       1  UNL1        0.0000
     52 H          18.2685    0.6670    0.5438 H       1  UNL1        0.0000
     53 H          20.6960    0.2097    4.9084 H       1  UNL1        0.0000
     54 H          20.3493    1.8450    5.4689 H       1  UNL1        0.0000
     55 H          19.1570    0.5652    5.6978 H       1  UNL1        0.0000
     56 H          19.9711    2.1065    1.7747 H       1  UNL1        0.0000
     57 H          20.8537    2.7042    3.1783 H       1  UNL1        0.0000
     58 H          21.1487    1.0727    2.5796 H       1  UNL1        0.0000
     59 H          17.7822    2.6727    2.9290 H       1  UNL1        0.0000
     60 H          17.4624    2.0428    4.5499 H       1  UNL1        0.0000
     61 H          18.7015    3.2757    4.3095 H       1  UNL1        0.0000
     62 H          18.2228   -2.2977    5.7080 H       1  UNL1        0.0000
     63 H          19.0988   -4.5444    6.2587 H       1  UNL1        0.0000
     64 H          18.2298   -6.5305    5.0404 H       1  UNL1        0.0000
     65 H          15.6450   -3.9986    2.7751 H       1  UNL1        0.0000
     66 H          15.6043   -6.3235    2.3684 H       1  UNL1        0.0000
     67 H          13.6357    3.2211    1.4397 H       1  UNL1        0.0000
     68 H          14.8644    2.6778    2.5613 H       1  UNL1        0.0000
     69 H          14.8690    2.1022    0.9110 H       1  UNL1        0.0000
     70 H          10.9069    2.1121    2.3215 H       1  UNL1        0.0000
     71 H          11.7625    2.3670    3.8247 H       1  UNL1        0.0000
     72 H          10.9313    0.8528    3.5358 H       1  UNL1        0.0000
     73 H          11.7334   -0.1199   -1.1315 H       1  UNL1        0.0000
     74 H          11.0542    0.9680    0.0764 H       1  UNL1        0.0000
     75 H          12.6149    1.3311   -0.6550 H       1  UNL1        0.0000
     76 H          14.6091   -0.1506   -0.1758 H       1  UNL1        0.0000
     77 H          13.6779   -1.5911   -0.5798 H       1  UNL1        0.0000
     78 H          14.4695   -1.4643    0.9937 H       1  UNL1        0.0000
     79 H          11.5171   -2.0609    0.4587 H       1  UNL1        0.0000
     80 H          12.2075   -1.9533    2.0809 H       1  UNL1        0.0000
     81 H          10.8061   -0.9722    1.6486 H       1  UNL1        0.0000
@<TRIPOS>BOND
     1    73    33    1
     2    75    33    1
     3    77    34    1
     4    33    74    1
     5    33    32    1
     6    76    34    1
     7    34    32    1
     8    34    78    1
     9    79    35    1
    10    52    18    1
    11    50    18    1
    12    32    35    1
    13    32     2    1
    14    69    30    1
    15    18    51    1
    16    18     1    1
    17    35    81    1
    18    35    80    1
    19    67    30    1
    20    30     2    1
    21    30    68    1
    22    56    21    1
    23    47    17    1
    24    49    17    1
    25     2    31    1
    26     2     7    1
    27    70    31    1
    28    66    29    1
    29    58    21    1
    30    17     1    1
    31    17    48    1
    32    21    57    1
    33    21    19    1
    34    65    28    1
    35    46    16    1
    36     1    19    1
    37     1     5    1
    38    59    22    1
    39    31    72    1
    40    31    71    1
    41    29     6    2
    42    29    27    1
    43     7    14    1
    44    28    27   ar
    45    28    23   ar
    46    19    22    1
    47    19    20    1
    48    27    26   ar
    49    22    61    1
    50    22    60    1
    51    16     5    1
    52    16    23    1
    53    16    15    1
    54    23    24   ar
    55    43    14    1
    56    14    15    1
    57    14    13    1
    58    26    64    1
    59    26    25   ar
    60    45    15    1
    61    15    44    1
    62    53    20    1
    63    20    54    1
    64    20    55    1
    65    41    12    1
    66    24    25   ar
    67    24    62    1
    68    25    63    1
    69    42    13    1
    70    13    12    1
    71    12    11    1
    72    11    40    1
    73    11    10    1
    74    39    10    1
    75    10     9    1
    76     9     4    1
    77     9     3    2
    78     4     8    1
    79    38     8    1
    80     8    37    1
    81     8    36    1
