@<TRIPOS>MOLECULE
2,3,4,7
 30 30 0 0 0
SMALL
GASTEIGER

@<TRIPOS>ATOM
      1 SI          1.5417   10.4126    1.3520 Si      1  UNL1        0.0000
      2 C           1.3394   11.9334    2.3940 C.3     1  UNL1        0.0000
      3 C           0.8629   13.0950    2.3892 C.3     1  UNL1        0.0000
      4 C           0.5880   14.3529    2.8666 C.3     1  UNL1        0.0000
      5 C          -0.7701   14.6935    3.4685 C.3     1  UNL1        0.0000
      6 C          -0.5264   15.3007    4.8384 C.ar    1  UNL1        0.0000
      7 C           0.5770   14.7926    5.5561 C.ar    1  UNL1        0.0000
      8 C           0.0800    9.2116    1.6402 C.3     1  UNL1        0.0000
      9 C           3.1743    9.5543    1.8779 C.3     1  UNL1        0.0000
     10 C           1.6488   10.8164   -0.5137 C.3     1  UNL1        0.0000
     11 C          -1.3328   16.3107    5.3426 C.ar    1  UNL1        0.0000
     12 C          -1.0682   16.8507    6.5909 C.ar    1  UNL1        0.0000
     13 C           0.0052   16.3784    7.3240 C.ar    1  UNL1        0.0000
     14 C           0.8076   15.3658    6.8121 C.ar    1  UNL1        0.0000
     15 H           1.0987   15.2023    2.4081 H       1  UNL1        0.0000
     16 H          -1.3756   13.7774    3.5668 H       1  UNL1        0.0000
     17 H          -1.3277   15.3952    2.8357 H       1  UNL1        0.0000
     18 H          -0.8671    9.6756    1.3813 H       1  UNL1        0.0000
     19 H           0.0150    8.8871    2.6741 H       1  UNL1        0.0000
     20 H           0.1860    8.3225    1.0257 H       1  UNL1        0.0000
     21 H           4.0349   10.0209    1.4068 H       1  UNL1        0.0000
     22 H           3.1764    8.5088    1.5836 H       1  UNL1        0.0000
     23 H           3.3323    9.5922    2.9530 H       1  UNL1        0.0000
     24 H           0.7157   11.2314   -0.8817 H       1  UNL1        0.0000
     25 H           1.8696    9.9283   -1.0982 H       1  UNL1        0.0000
     26 H           2.4298   11.5440   -0.7124 H       1  UNL1        0.0000
     27 H          -2.1681   16.6813    4.7618 H       1  UNL1        0.0000
     28 H          -1.6942   17.6386    6.9851 H       1  UNL1        0.0000
     29 H           0.2182   16.7995    8.2975 H       1  UNL1        0.0000
     30 H           1.6450   15.0212    7.4214 H       1  UNL1        0.0000
@<TRIPOS>BOND
     1    25    10    1
     2    24    10    1
     3    26    10    1
     4    10     1    1
     5    20     8    1
     6     1     8    1
     7     1     9    1
     8     1     2    1
     9    18     8    1
    10    21     9    1
    11    22     9    1
    12     8    19    1
    13     9    23    1
    14     3     2    1
    15     3     4    1
    16    15     4    1
    17    17     5    1
    18     4     5    1
    19     5    16    1
    20     5     6    1
    21    27    11    1
    22     6    11   ar
    23     6     7   ar
    24    11    12   ar
    25     7    14   ar
    26    12    28    1
    27    12    13   ar
    28    14    13   ar
    29    14    30    1
    30    13    29    1
