@<TRIPOS>MOLECULE
1,2,3,4
 25 25 0 0 0
SMALL
GASTEIGER

@<TRIPOS>ATOM
      1 C           1.2553   12.9646   14.3493 C.2     1  UNL1       -0.0584
      2 C           2.5480   12.8969   14.9721 C.3     1  UNL1        0.0231
      3 C           3.3348   13.9479   14.4567 C.2     1  UNL1       -0.0584
      4 C           2.5451   14.6570   13.4928 C.2     1  UNL1       -0.0477
      5 C           1.2350   14.1051   13.5106 C.2     1  UNL1       -0.0477
      6 C           0.0535   12.1676   14.7480 C.3     1  UNL1       -0.0424
      7 H          -0.4102   12.6121   15.6305 H       1  UNL1        0.0275
      8 H           0.3336   11.1420   14.9814 H       1  UNL1        0.0275
      9 H          -0.6719   12.1428   13.9368 H       1  UNL1        0.0275
     10 C           2.9174   12.0029   16.1103 C.3     1  UNL1       -0.0510
     11 H           2.3966   11.0490   16.0394 H       1  UNL1        0.0242
     12 H           2.6436   12.4773   17.0547 H       1  UNL1        0.0242
     13 H           3.9883   11.8095   16.1177 H       1  UNL1        0.0242
     14 C           4.6823   14.3511   14.9609 C.3     1  UNL1       -0.0424
     15 H           4.5745   14.8872   15.9058 H       1  UNL1        0.0275
     16 H           5.1899   14.9990   14.2489 H       1  UNL1        0.0275
     17 H           5.3062   13.4750   15.1326 H       1  UNL1        0.0275
     18 C           2.9111   15.9428   12.8216 C.3     1  UNL1       -0.0395
     19 H           2.4283   16.0132   11.8481 H       1  UNL1        0.0278
     20 H           3.9861   16.0170   12.6720 H       1  UNL1        0.0278
     21 H           2.5872   16.7849   13.4364 H       1  UNL1        0.0278
     22 C           0.0473   14.6425   12.7889 C.3     1  UNL1       -0.0395
     23 H          -0.8610   14.4569   13.3578 H       1  UNL1        0.0278
     24 H          -0.0517   14.1484   11.8143 H       1  UNL1        0.0278
     25 H           0.1515   15.7115   12.6199 H       1  UNL1        0.0278
@<TRIPOS>BOND
     1    24    22    1
     2    19    18    1
     3    25    22    1
     4    20    18    1
     5    22    23    1
     6    22     5    1
     7    18    21    1
     8    18     4    1
     9     4     5    1
    10     4     3    2
    11     5     1    2
    12     9     6    1
    13    16    14    1
    14     1     6    1
    15     1     2    1
    16     3    14    1
    17     3     2    1
    18     6     8    1
    19     6     7    1
    20    14    17    1
    21    14    15    1
    22     2    10    1
    23    11    10    1
    24    10    13    1
    25    10    12    1
