@<TRIPOS>MOLECULE
1,3,4,6
 27 27 0 0 0
SMALL
GASTEIGER

@<TRIPOS>ATOM
      1 C           3.9195    3.2994    9.7418 C.3     1  UNL1        0.0000
      2 H           4.6924    3.8389    9.2025 H       1  UNL1        0.0000
      3 C           3.4736    3.8742   10.9379 C.3     1  UNL1        0.0000
      4 C           2.4647    3.1543   11.6608 C.3     1  UNL1        0.0000
      5 H           2.1059    3.5213   12.6136 H       1  UNL1        0.0000
      6 C           2.1110    1.9098   11.1455 C.3     1  UNL1        0.0000
      7 H           1.4382    1.2978   11.7412 H       1  UNL1        0.0000
      8 C           2.0421    1.6269    9.6616 C.3     1  UNL1        0.0000
      9 H           0.9939    1.6787    9.3463 H       1  UNL1        0.0000
     10 H           2.3716    0.5985    9.4789 H       1  UNL1        0.0000
     11 C           2.8945    2.6169    8.8568 C.3     1  UNL1        0.0000
     12 H           2.2513    3.3867    8.4125 H       1  UNL1        0.0000
     13 H           3.4037    2.1106    8.0360 H       1  UNL1        0.0000
     14 O           4.0482    4.9740   11.4990 O.3     1  UNL1        0.0000
     15 SI          3.5145    6.5200   11.5911 Si      1  UNL1        0.0000
     16 C           4.8015    7.3277   12.7289 C.3     1  UNL1        0.0000
     17 H           4.9370    6.7611   13.6445 H       1  UNL1        0.0000
     18 H           4.4914    8.3305   13.0022 H       1  UNL1        0.0000
     19 H           5.7691    7.4035   12.2447 H       1  UNL1        0.0000
     20 C           1.7591    6.6116   12.3379 C.3     1  UNL1        0.0000
     21 H           1.0555    6.0072   11.7704 H       1  UNL1        0.0000
     22 H           1.3815    7.6291   12.3457 H       1  UNL1        0.0000
     23 H           1.7436    6.2538   13.3640 H       1  UNL1        0.0000
     24 C           3.4893    7.3031    9.8511 C.3     1  UNL1        0.0000
     25 H           4.4552    7.2058    9.3633 H       1  UNL1        0.0000
     26 H           3.2455    8.3599    9.8887 H       1  UNL1        0.0000
     27 H           2.7549    6.8203    9.2118 H       1  UNL1        0.0000
@<TRIPOS>BOND
     1    13    11    1
     2    12    11    1
     3    11     8    1
     4    11     1    1
     5     2     1    1
     6    27    24    1
     7     9     8    1
     8    25    24    1
     9    10     8    1
    10     8     6    1
    11     1     3    1
    12    24    26    1
    13    24    15    1
    14     3    14    1
    15     3     4    1
    16     6     4    1
    17     6     7    1
    18    14    15    1
    19    15    20    1
    20    15    16    1
    21     4     5    1
    22    21    20    1
    23    19    16    1
    24    20    22    1
    25    20    23    1
    26    16    18    1
    27    16    17    1
