@<TRIPOS>MOLECULE
3,4,6,8
 32 32 0 0 0
SMALL
GASTEIGER

@<TRIPOS>ATOM
      1 SI          9.1137    7.4716    8.6488 Si      1  UNL1        0.0000
      2 SI         12.0235    5.1117    6.7199 Si      1  UNL1        0.0000
      3 C          10.3546    7.7016    7.2508 C.2     1  UNL1        0.0000
      4 C          10.3502    8.5554    6.1028 C.2     1  UNL1        0.0000
      5 H           9.6644    9.3124    5.7414 H       1  UNL1        0.0000
      6 C          11.4159    7.7978    5.5001 C.3     1  UNL1        0.0000
      7 H          11.8223    7.7422    4.4976 H       1  UNL1        0.0000
      8 C          11.4590    6.9040    6.6295 C.3     1  UNL1        0.0000
      9 C           9.5284    5.9863    9.7620 C.3     1  UNL1        0.0000
     10 H           8.8321    5.9281   10.5930 H       1  UNL1        0.0000
     11 H          10.5292    6.0826   10.1684 H       1  UNL1        0.0000
     12 H           9.4743    5.0483    9.2186 H       1  UNL1        0.0000
     13 C           7.4253    7.1821    7.7945 C.3     1  UNL1        0.0000
     14 H           7.1360    8.0240    7.1737 H       1  UNL1        0.0000
     15 H           6.6477    7.0398    8.5370 H       1  UNL1        0.0000
     16 H           7.4417    6.2995    7.1630 H       1  UNL1        0.0000
     17 C           9.0532    9.0990    9.6473 C.3     1  UNL1        0.0000
     18 H           8.7487    9.9361    9.0246 H       1  UNL1        0.0000
     19 H          10.0358    9.3225   10.0522 H       1  UNL1        0.0000
     20 H           8.3572    9.0334   10.4778 H       1  UNL1        0.0000
     21 C          12.6404    4.5084    8.4178 C.3     1  UNL1        0.0000
     22 H          11.8404    4.0584    8.9964 H       1  UNL1        0.0000
     23 H          13.0430    5.3295    9.0021 H       1  UNL1        0.0000
     24 H          13.4228    3.7640    8.3023 H       1  UNL1        0.0000
     25 C          10.5188    4.0744    6.1479 C.3     1  UNL1        0.0000
     26 H           9.6613    4.2258    6.7964 H       1  UNL1        0.0000
     27 H          10.7592    3.0163    6.1588 H       1  UNL1        0.0000
     28 H          10.2146    4.3322    5.1379 H       1  UNL1        0.0000
     29 C          13.4299    4.9475    5.4319 C.3     1  UNL1        0.0000
     30 H          13.0970    5.2193    4.4346 H       1  UNL1        0.0000
     31 H          13.7961    3.9268    5.3862 H       1  UNL1        0.0000
     32 H          14.2696    5.5871    5.6862 H       1  UNL1        0.0000
@<TRIPOS>BOND
     1    30    29    1
     2     7     6    1
     3    28    25    1
     4    31    29    1
     5    29    32    1
     6    29     2    1
     7     6     4    1
     8     6     8    1
     9     5     4    1
    10     4     3    2
    11    25    27    1
    12    25     2    1
    13    25    26    1
    14     8     2    1
    15     8     3    1
    16     2    21    1
    17    16    13    1
    18    14    13    1
    19     3     1    1
    20    13    15    1
    21    13     1    1
    22    24    21    1
    23    21    22    1
    24    21    23    1
    25     1    17    1
    26     1     9    1
    27    18    17    1
    28    12     9    1
    29    17    19    1
    30    17    20    1
    31     9    11    1
    32     9    10    1
