@<TRIPOS>MOLECULE
1,2,3,5
 10 10 0 0 0
SMALL
GASTEIGER

@<TRIPOS>ATOM
      1 C           3.6752    9.2393    2.5910 C.3     1  UNL1        0.0054
      2 C           4.6781    8.2407    2.5743 C.2     1  UNL1       -0.0763
      3 C           4.8612    7.8401    1.2311 C.2     1  UNL1       -0.0654
      4 C           3.9907    8.5892    0.4292 C.2     1  UNL1       -0.0654
      5 C           3.2510    9.4426    1.2578 C.2     1  UNL1       -0.0763
      6 H           3.4324    9.8508    3.4527 H       1  UNL1        0.0394
      7 H           5.3047    7.9858    3.4216 H       1  UNL1        0.0578
      8 H           5.6513    7.2093    0.8478 H       1  UNL1        0.0615
      9 H           3.9637    8.5800   -0.6512 H       1  UNL1        0.0615
     10 H           2.6105   10.2360    0.8983 H       1  UNL1        0.0578
@<TRIPOS>BOND
     1     9     4    1
     2     4     3    1
     3     4     5    2
     4     8     3    1
     5    10     5    1
     6     3     2    2
     7     5     1    1
     8     2     1    1
     9     2     7    1
    10     1     6    1
