@<TRIPOS>MOLECULE
1,3,11,13
 20 20 0 0 0
SMALL
GASTEIGER

@<TRIPOS>ATOM
      1 C          -0.2386   -0.6826    1.4555 C.3     1  UNL1       -0.0348
      2 H          -0.7798   -0.4807    0.5341 H       1  UNL1        0.0306
      3 C          -0.4471    0.1908    2.5234 C.3     1  UNL1       -0.0348
      4 H          -1.1669    0.9981    2.3821 H       1  UNL1        0.0306
      5 C          -0.2644   -0.2030    3.9738 C.3     1  UNL1       -0.0494
      6 H          -1.0712   -0.8879    4.2590 H       1  UNL1        0.0268
      7 H          -0.3771    0.6915    4.5908 H       1  UNL1        0.0268
      8 C           1.1031   -0.8554    4.2675 C.3     1  UNL1       -0.0494
      9 H           1.4130   -0.5837    5.2786 H       1  UNL1        0.0268
     10 H           1.0125   -1.9427    4.2400 H       1  UNL1        0.0268
     11 C           2.1816   -0.4347    3.2911 C.3     1  UNL1       -0.0348
     12 H           2.9806    0.1745    3.7157 H       1  UNL1        0.0306
     13 C           2.4536   -1.1285    2.1254 C.3     1  UNL1       -0.0348
     14 H           3.4562   -1.0456    1.7040 H       1  UNL1        0.0306
     15 C           1.6846   -2.3457    1.6649 C.3     1  UNL1       -0.0494
     16 H           1.9347   -3.1939    2.3122 H       1  UNL1        0.0268
     17 H           2.0214   -2.6027    0.6584 H       1  UNL1        0.0268
     18 C           0.1568   -2.1327    1.6479 C.3     1  UNL1       -0.0494
     19 H          -0.2704   -2.7267    0.8376 H       1  UNL1        0.0268
     20 H          -0.2831   -2.4951    2.5790 H       1  UNL1        0.0268
@<TRIPOS>BOND
     1     2     1    1
     2    17    15    1
     3    19    18    1
     4     1    18    1
     5     1     3    1
     6    18    15    1
     7    18    20    1
     8    15    13    1
     9    15    16    1
    10    14    13    1
    11    13    11    1
    12     4     3    1
    13     3     5    1
    14    11    12    1
    15    11     8    1
    16     5     6    1
    17     5     8    1
    18     5     7    1
    19    10     8    1
    20     8     9    1
