@<TRIPOS>MOLECULE
1,5,7,9
 10 10 0 0 0
SMALL
GASTEIGER

@<TRIPOS>ATOM
      1 C          -2.3865    1.6005    6.4254 C.2     1  UNL1       -0.0763
      2 H          -2.5177    0.5929    6.8017 H       1  UNL1        0.0578
      3 C          -3.2243    2.2635    5.5101 C.2     1  UNL1       -0.0654
      4 H          -4.1162    1.8521    5.0560 H       1  UNL1        0.0615
      5 C          -2.7706    3.5933    5.3829 C.2     1  UNL1       -0.0654
      6 H          -3.2600    4.3781    4.8202 H       1  UNL1        0.0615
      7 C          -1.6619    3.7599    6.2389 C.2     1  UNL1       -0.0763
      8 H          -1.1615    4.6932    6.4585 H       1  UNL1        0.0578
      9 C          -1.4125    2.5217    6.8757 C.3     1  UNL1        0.0054
     10 H          -0.6856    2.3417    7.6608 H       1  UNL1        0.0394
@<TRIPOS>BOND
     1     6     5    1
     2     4     3    1
     3     5     3    1
     4     5     7    2
     5     3     1    2
     6     7     8    1
     7     7     9    1
     8     1     2    1
     9     1     9    1
    10     9    10    1
