@<TRIPOS>MOLECULE
3,4,5,6
 66 70 0 0 0
SMALL
GASTEIGER

@<TRIPOS>ATOM
      1 SI          0.0565    5.8103    6.0233 Si      1  UNL1        0.0000
      2 SI          1.9400    7.0160    6.7546 Si      1  UNL1        0.0000
      3 C          -0.4493    6.0559    4.2010 C.3     1  UNL1        0.0000
      4 C           0.4952    5.3032    3.4300 C.3     1  UNL1        0.0000
      5 C           0.9840    4.1498    4.1323 C.3     1  UNL1        0.0000
      6 C           0.4694    4.0353    5.4545 C.3     1  UNL1        0.0000
      7 C          -1.0288    7.3187    3.7275 C.ar    1  UNL1        0.0000
      8 C          -0.2374    8.3415    3.2090 C.ar    1  UNL1        0.0000
      9 H           0.8274    8.1950    3.1114 H       1  UNL1        0.0000
     10 C          -0.8037    9.5396    2.8155 C.ar    1  UNL1        0.0000
     11 H          -0.1746   10.3186    2.4096 H       1  UNL1        0.0000
     12 C          -2.1675    9.7433    2.9377 C.ar    1  UNL1        0.0000
     13 H          -2.6077   10.6790    2.6265 H       1  UNL1        0.0000
     14 C          -2.9636    8.7374    3.4608 C.ar    1  UNL1        0.0000
     15 H          -4.0289    8.8872    3.5590 H       1  UNL1        0.0000
     16 C          -2.3986    7.5398    3.8533 C.ar    1  UNL1        0.0000
     17 H          -3.0171    6.7452    4.2492 H       1  UNL1        0.0000
     18 C           1.0785    5.7633    2.1589 C.ar    1  UNL1        0.0000
     19 C           2.4616    5.9116    2.0690 C.ar    1  UNL1        0.0000
     20 H           3.0813    5.6550    2.9166 H       1  UNL1        0.0000
     21 C           3.0417    6.3928    0.9105 C.ar    1  UNL1        0.0000
     22 H           4.1152    6.4995    0.8544 H       1  UNL1        0.0000
     23 C           2.2516    6.7386   -0.1727 C.ar    1  UNL1        0.0000
     24 H           2.7061    7.1125   -1.0780 H       1  UNL1        0.0000
     25 C           0.8756    6.6049   -0.0885 C.ar    1  UNL1        0.0000
     26 H           0.2529    6.8762   -0.9281 H       1  UNL1        0.0000
     27 C           0.2931    6.1228    1.0680 C.ar    1  UNL1        0.0000
     28 H          -0.7792    6.0137    1.1313 H       1  UNL1        0.0000
     29 C           2.0036    3.2647    3.5416 C.ar    1  UNL1        0.0000
     30 C           3.1319    2.9144    4.2801 C.ar    1  UNL1        0.0000
     31 H           3.2372    3.2712    5.2937 H       1  UNL1        0.0000
     32 C           4.1149    2.1183    3.7226 C.ar    1  UNL1        0.0000
     33 H           4.9835    1.8540    4.3079 H       1  UNL1        0.0000
     34 C           3.9883    1.6605    2.4223 C.ar    1  UNL1        0.0000
     35 H           4.7553    1.0353    1.9899 H       1  UNL1        0.0000
     36 C           2.8707    2.0050    1.6796 C.ar    1  UNL1        0.0000
     37 H           2.7632    1.6486    0.6658 H       1  UNL1        0.0000
     38 C           1.8870    2.8010    2.2330 C.ar    1  UNL1        0.0000
     39 H           1.0073    3.0565    1.6580 H       1  UNL1        0.0000
     40 C           0.7867    2.9162    6.3320 C.ar    1  UNL1        0.0000
     41 C           1.0462    3.1456    7.6836 C.ar    1  UNL1        0.0000
     42 H           1.0065    4.1575    8.0617 H       1  UNL1        0.0000
     43 C           1.3644    2.1033    8.5332 C.ar    1  UNL1        0.0000
     44 H           1.5689    2.3040    9.5751 H       1  UNL1        0.0000
     45 C           1.4175    0.8051    8.0547 C.ar    1  UNL1        0.0000
     46 H           1.6630   -0.0099    8.7190 H       1  UNL1        0.0000
     47 C           1.1385    0.5578    6.7195 C.ar    1  UNL1        0.0000
     48 H           1.1623   -0.4537    6.3412 H       1  UNL1        0.0000
     49 C           0.8234    1.5980    5.8700 C.ar    1  UNL1        0.0000
     50 H           0.5845    1.3948    4.8359 H       1  UNL1        0.0000
     51 C          -1.4045    5.9998    7.2289 C.3     1  UNL1        0.0000
     52 H          -1.8341    6.9914    7.1349 H       1  UNL1        0.0000
     53 H          -1.0709    5.8838    8.2536 H       1  UNL1        0.0000
     54 H          -2.1929    5.2771    7.0551 H       1  UNL1        0.0000
     55 C           3.5295    5.9504    6.6693 C.3     1  UNL1        0.0000
     56 H           4.3848    6.4817    7.0774 H       1  UNL1        0.0000
     57 H           3.7712    5.6874    5.6435 H       1  UNL1        0.0000
     58 H           3.4237    5.0255    7.2293 H       1  UNL1        0.0000
     59 C           2.2616    8.6015    5.7364 C.3     1  UNL1        0.0000
     60 H           1.3588    9.1946    5.6255 H       1  UNL1        0.0000
     61 H           2.6220    8.3642    4.7399 H       1  UNL1        0.0000
     62 H           3.0108    9.2291    6.2111 H       1  UNL1        0.0000
     63 C           1.6837    7.5290    8.5797 C.3     1  UNL1        0.0000
     64 H           2.5305    8.0975    8.9527 H       1  UNL1        0.0000
     65 H           1.5635    6.6664    9.2281 H       1  UNL1        0.0000
     66 H           0.7999    8.1490    8.6935 H       1  UNL1        0.0000
@<TRIPOS>BOND
     1    24    23    1
     2    26    25    1
     3    23    25   ar
     4    23    21   ar
     5    25    27   ar
     6    37    36    1
     7    22    21    1
     8    21    19   ar
     9    27    28    1
    10    27    18   ar
    11    39    38    1
    12    36    38   ar
    13    36    34   ar
    14    35    34    1
    15    19    18   ar
    16    19    20    1
    17    18     4    1
    18    38    29   ar
    19    11    10    1
    20    34    32   ar
    21    13    12    1
    22    10    12   ar
    23    10     8   ar
    24    12    14   ar
    25     9     8    1
    26     8     7   ar
    27     4     5    1
    28     4     3    1
    29    14    15    1
    30    14    16   ar
    31    29     5    1
    32    29    30   ar
    33    32    30   ar
    34    32    33    1
    35     7    16   ar
    36     7     3    1
    37    16    17    1
    38     5     6    1
    39     3     1    1
    40    30    31    1
    41    61    59    1
    42    50    49    1
    43     6     1    1
    44     6    40    1
    45    60    59    1
    46    57    55    1
    47    59    62    1
    48    59     2    1
    49    49    40   ar
    50    49    47   ar
    51     1     2    1
    52     1    51    1
    53    40    41   ar
    54    48    47    1
    55    55     2    1
    56    55    56    1
    57    55    58    1
    58    47    45   ar
    59     2    63    1
    60    54    51    1
    61    52    51    1
    62    51    53    1
    63    41    42    1
    64    41    43   ar
    65    45    43   ar
    66    45    46    1
    67    43    44    1
    68    63    66    1
    69    63    64    1
    70    63    65    1
