@<TRIPOS>MOLECULE
5,6,47,48
 84 87 0 0 0
SMALL
GASTEIGER

@<TRIPOS>ATOM
      1 SI          3.6584    2.5039    8.7890 Si      1  UNL1        0.0000
      2 SI          2.3490    4.3491    9.4764 Si      1  UNL1        0.0000
      3 SI          3.3241    0.5287   10.0627 Si      1  UNL1        0.0000
      4 SI          3.5695    2.0721    6.4618 Si      1  UNL1        0.0000
      5 C           6.5188    2.4858    8.7349 C.2     1  UNL1        0.0000
      6 C           5.4172    3.0210    9.1658 C.2     1  UNL1        0.0000
      7 C           2.3093    5.7583    8.1763 C.3     1  UNL1        0.0000
      8 H           1.7761    6.6359    8.5334 H       1  UNL1        0.0000
      9 H           1.8113    5.4256    7.2704 H       1  UNL1        0.0000
     10 H           3.3099    6.0736    7.8970 H       1  UNL1        0.0000
     11 C           3.0173    5.0862   11.1163 C.3     1  UNL1        0.0000
     12 H           4.1080    5.0977   11.0950 H       1  UNL1        0.0000
     13 H           2.7121    4.4842   11.9673 H       1  UNL1        0.0000
     14 H           2.6712    6.1008   11.2981 H       1  UNL1        0.0000
     15 C           0.5315    3.8358    9.7716 C.3     1  UNL1        0.0000
     16 H           0.0920    3.4348    8.8637 H       1  UNL1        0.0000
     17 H          -0.0837    4.6732   10.0872 H       1  UNL1        0.0000
     18 H           0.4540    3.0684   10.5353 H       1  UNL1        0.0000
     19 C           2.9018    0.8186   11.9109 C.3     1  UNL1        0.0000
     20 H           2.4968   -0.0789   12.3714 H       1  UNL1        0.0000
     21 H           2.1603    1.6033   12.0271 H       1  UNL1        0.0000
     22 H           3.7782    1.1060   12.4835 H       1  UNL1        0.0000
     23 C           1.8745   -0.4896    9.3401 C.3     1  UNL1        0.0000
     24 H           2.0270   -0.7094    8.2882 H       1  UNL1        0.0000
     25 H           0.9389    0.0540    9.4267 H       1  UNL1        0.0000
     26 H           1.7489   -1.4371    9.8562 H       1  UNL1        0.0000
     27 C           4.9049   -0.5492   10.0070 C.3     1  UNL1        0.0000
     28 H           4.8967   -1.3503   10.7411 H       1  UNL1        0.0000
     29 H           5.7828    0.0638   10.1968 H       1  UNL1        0.0000
     30 H           5.0351   -1.0008    9.0287 H       1  UNL1        0.0000
     31 C           1.7758    2.0715    5.7986 C.3     1  UNL1        0.0000
     32 H           1.2953    3.0308    5.9627 H       1  UNL1        0.0000
     33 H           1.1760    1.3176    6.2984 H       1  UNL1        0.0000
     34 H           1.7371    1.8652    4.7330 H       1  UNL1        0.0000
     35 C           4.3618    0.3827    6.0334 C.3     1  UNL1        0.0000
     36 H           4.4154    0.2132    4.9611 H       1  UNL1        0.0000
     37 H           3.8005   -0.4402    6.4655 H       1  UNL1        0.0000
     38 H           5.3737    0.3270    6.4235 H       1  UNL1        0.0000
     39 C           4.5608    3.3908    5.4890 C.3     1  UNL1        0.0000
     40 H           5.5871    3.4291    5.8457 H       1  UNL1        0.0000
     41 H           4.1304    4.3798    5.6150 H       1  UNL1        0.0000
     42 H           4.5934    3.1836    4.4225 H       1  UNL1        0.0000
     43 SI         10.7106    2.5041    8.7892 Si      1  UNL1        0.0000
     44 SI         12.0198    4.3495    9.4760 Si      1  UNL1        0.0000
     45 SI         11.0440    0.5287   10.0623 Si      1  UNL1        0.0000
     46 SI         10.8004    2.0724    6.4614 Si      1  UNL1        0.0000
     47 C           7.8502    2.4861    8.7349 C.3     1  UNL1        0.0000
     48 C           8.9519    3.0209    9.1663 C.3     1  UNL1        0.0000
     49 C          12.0605    5.7573    8.1743 C.3     1  UNL1        0.0000
     50 H          12.5907    6.6365    8.5318 H       1  UNL1        0.0000
     51 H          12.5619    5.4245    7.2702 H       1  UNL1        0.0000
     52 H          11.0600    6.0699    7.8918 H       1  UNL1        0.0000
     53 C          11.3508    5.0884   11.1149 C.3     1  UNL1        0.0000
     54 H          10.2600    5.0996   11.0932 H       1  UNL1        0.0000
     55 H          11.6557    4.4874   11.9666 H       1  UNL1        0.0000
     56 H          11.6966    6.1032   11.2956 H       1  UNL1        0.0000
     57 C          13.8371    3.8365    9.7729 C.3     1  UNL1        0.0000
     58 H          14.2778    3.4360    8.8655 H       1  UNL1        0.0000
     59 H          14.4518    4.6737   10.0899 H       1  UNL1        0.0000
     60 H          13.9136    3.0686   10.5362 H       1  UNL1        0.0000
     61 C          11.4656    0.8181   11.9108 C.3     1  UNL1        0.0000
     62 H          11.8713   -0.0792   12.3708 H       1  UNL1        0.0000
     63 H          12.2063    1.6036   12.0278 H       1  UNL1        0.0000
     64 H          10.5888    1.1043   12.4832 H       1  UNL1        0.0000
     65 C          12.4942   -0.4891    9.3401 C.3     1  UNL1        0.0000
     66 H          12.3423   -0.7085    8.2881 H       1  UNL1        0.0000
     67 H          13.4297    0.0545    9.4275 H       1  UNL1        0.0000
     68 H          12.6195   -1.4368    9.8559 H       1  UNL1        0.0000
     69 C           9.4631   -0.5490   10.0053 C.3     1  UNL1        0.0000
     70 H           9.4706   -1.3499   10.7395 H       1  UNL1        0.0000
     71 H           8.5853    0.0642   10.1941 H       1  UNL1        0.0000
     72 H           9.3338   -1.0008    9.0269 H       1  UNL1        0.0000
     73 C          12.5947    2.0706    5.7995 C.3     1  UNL1        0.0000
     74 H          13.0753    3.0298    5.9638 H       1  UNL1        0.0000
     75 H          13.1939    1.3166    6.2999 H       1  UNL1        0.0000
     76 H          12.6341    1.8642    4.7340 H       1  UNL1        0.0000
     77 C          10.0077    0.3832    6.0329 C.3     1  UNL1        0.0000
     78 H           9.9539    0.2137    4.9606 H       1  UNL1        0.0000
     79 H          10.5686   -0.4400    6.4649 H       1  UNL1        0.0000
     80 H           8.9958    0.3279    6.4231 H       1  UNL1        0.0000
     81 C           9.8106    3.3914    5.4876 C.3     1  UNL1        0.0000
     82 H           8.7836    3.4288    5.8422 H       1  UNL1        0.0000
     83 H          10.2403    4.3804    5.6157 H       1  UNL1        0.0000
     84 H           9.7805    3.1852    4.4208 H       1  UNL1        0.0000
@<TRIPOS>BOND
     1    84    81    1
     2    42    39    1
     3    34    31    1
     4    76    73    1
     5    78    77    1
     6    36    35    1
     7    81    83    1
     8    81    82    1
     9    81    46    1
    10    39    41    1
    11    39    40    1
    12    39     4    1
    13    31    32    1
    14    31    33    1
    15    31     4    1
    16    73    74    1
    17    73    75    1
    18    73    46    1
    19    77    80    1
    20    77    46    1
    21    77    79    1
    22    35    38    1
    23    35     4    1
    24    35    37    1
    25    46    43    1
    26     4     1    1
    27    51    49    1
    28     9     7    1
    29    52    49    1
    30    10     7    1
    31    49    50    1
    32    49    44    1
    33     7     8    1
    34     7     2    1
    35    66    65    1
    36    24    23    1
    37     5    47    1
    38     5     6    2
    39    47    48    1
    40     1     6    1
    41     1     2    1
    42     1     3    1
    43    43    48    1
    44    43    44    1
    45    43    45    1
    46    16    15    1
    47    58    57    1
    48    72    69    1
    49    30    27    1
    50    23    25    1
    51    23    26    1
    52    23     3    1
    53    65    67    1
    54    65    68    1
    55    65    45    1
    56    44    57    1
    57    44    53    1
    58     2    15    1
    59     2    11    1
    60    15    17    1
    61    15    18    1
    62    57    59    1
    63    57    60    1
    64    69    45    1
    65    69    71    1
    66    69    70    1
    67    27     3    1
    68    27    29    1
    69    27    28    1
    70    45    61    1
    71     3    19    1
    72    54    53    1
    73    12    11    1
    74    53    56    1
    75    53    55    1
    76    11    14    1
    77    11    13    1
    78    61    63    1
    79    61    62    1
    80    61    64    1
    81    19    21    1
    82    19    20    1
    83    19    22    1
    84     1     5    0
    85     1    27    0
    86    43    47    0
    87    43    69    0
