@<TRIPOS>MOLECULE
2,3,5,6
 34 34 0 0 0
SMALL
GASTEIGER

@<TRIPOS>ATOM
      1 SI         10.8689    7.4465    2.5202 Si      1  UNL1        0.0000
      2 C          10.5560    5.1018    0.8106 C.2     1  UNL1        0.0000
      3 C          10.6461    3.6936    0.8595 C.2     1  UNL1        0.0000
      4 C          10.8958    3.3130    2.2107 C.2     1  UNL1        0.0000
      5 C          10.9457    4.4849    2.9920 C.2     1  UNL1        0.0000
      6 C          10.7150    5.6166    2.1444 C.3     1  UNL1        0.0000
      7 C          10.5134    5.9065   -0.4561 C.3     1  UNL1        0.0000
      8 H          10.0733    6.8837   -0.2812 H       1  UNL1        0.0000
      9 H           9.9286    5.3980   -1.2223 H       1  UNL1        0.0000
     10 H          11.5261    6.0477   -0.8427 H       1  UNL1        0.0000
     11 C          10.7628    2.8112   -0.3522 C.3     1  UNL1        0.0000
     12 H          10.6079    1.7627   -0.1050 H       1  UNL1        0.0000
     13 H          11.7631    2.9042   -0.7829 H       1  UNL1        0.0000
     14 H          10.0415    3.1009   -1.1154 H       1  UNL1        0.0000
     15 C          11.3805    1.9578    2.6504 C.3     1  UNL1        0.0000
     16 H          11.0335    1.6980    3.6494 H       1  UNL1        0.0000
     17 H          12.4734    1.9515    2.6726 H       1  UNL1        0.0000
     18 H          11.0635    1.1784    1.9613 H       1  UNL1        0.0000
     19 C          11.5445    4.5563    4.3691 C.3     1  UNL1        0.0000
     20 H          11.5214    3.5871    4.8625 H       1  UNL1        0.0000
     21 H          11.0511    5.2896    4.9996 H       1  UNL1        0.0000
     22 H          12.5940    4.8492    4.2871 H       1  UNL1        0.0000
     23 C          11.5656    7.9271    4.2403 C.3     1  UNL1        0.0000
     24 H          10.9546    7.5986    5.0733 H       1  UNL1        0.0000
     25 H          11.6400    9.0086    4.3046 H       1  UNL1        0.0000
     26 H          12.5624    7.5254    4.3848 H       1  UNL1        0.0000
     27 C           9.0806    8.1406    2.3533 C.3     1  UNL1        0.0000
     28 H           8.3718    7.3221    2.1404 H       1  UNL1        0.0000
     29 H           9.0110    8.8550    1.5381 H       1  UNL1        0.0000
     30 H           8.7571    8.6628    3.2500 H       1  UNL1        0.0000
     31 C          12.0378    8.3543    1.3011 C.3     1  UNL1        0.0000
     32 H          12.9270    7.7659    1.0990 H       1  UNL1        0.0000
     33 H          12.3628    9.3014    1.7204 H       1  UNL1        0.0000
     34 H          11.5647    8.5663    0.3492 H       1  UNL1        0.0000
@<TRIPOS>BOND
     1     9     7    1
     2    14    11    1
     3    10     7    1
     4    13    11    1
     5     7     8    1
     6     7     2    1
     7    11    12    1
     8    11     3    1
     9    34    31    1
    10     2     3    2
    11     2     6    1
    12     3     4    1
    13    32    31    1
    14    31    33    1
    15    31     1    1
    16    29    27    1
    17    18    15    1
    18    28    27    1
    19     6     1    1
    20     6     5    1
    21     4    15    1
    22     4     5    2
    23    27     1    1
    24    27    30    1
    25     1    23    1
    26    15    17    1
    27    15    16    1
    28     5    19    1
    29    23    25    1
    30    23    26    1
    31    23    24    1
    32    22    19    1
    33    19    20    1
    34    19    21    1
