@<TRIPOS>MOLECULE
2,3,4,5
 79 78 0 0 0
SMALL
GASTEIGER

@<TRIPOS>ATOM
      1 C           5.7578    3.4745    0.8538 C.3     1  UNL1        0.0000
      2 C           4.9157    2.2981    1.2780 C.3     1  UNL1        0.0000
      3 C           5.5642    1.0634    1.5530 C.2     1  UNL1        0.0000
      4 C           4.8126   -0.0001    2.0794 C.2     1  UNL1        0.0000
      5 C           3.4156    0.2154    2.2926 C.3     1  UNL1        0.0000
      6 C           2.6253   -0.8516    3.0091 C.3     1  UNL1        0.0000
      7 O           1.7911   -0.1952    3.9727 O.3     1  UNL1        0.0000
      8 C           1.5137   -0.8589    5.0972 C.2     1  UNL1        0.0000
      9 O           1.8746   -1.9880    5.3184 O.2     1  UNL1        0.0000
     10 C           0.7294    0.0025    6.0455 C.3     1  UNL1        0.0000
     11 C           1.7570   -1.6847    2.0262 C.3     1  UNL1        0.0000
     12 N           0.6233   -2.2819    2.6788 N.am    1  UNL1        0.0000
     13 C          -0.5802   -1.6531    2.7232 C.2     1  UNL1        0.0000
     14 O          -0.8630   -0.6914    2.0488 O.2     1  UNL1        0.0000
     15 O          -1.3854   -2.2948    3.5813 O.3     1  UNL1        0.0000
     16 C          -2.7681   -1.8907    3.7384 C.3     1  UNL1        0.0000
     17 C          -2.8462   -0.4642    4.2813 C.3     1  UNL1        0.0000
     18 C          -3.3280   -2.8831    4.7581 C.3     1  UNL1        0.0000
     19 C          -3.5109   -2.0127    2.4082 C.3     1  UNL1        0.0000
     20 C           2.6106   -2.7882    1.3780 C.3     1  UNL1        0.0000
     21 O           2.8382   -3.8054    2.3492 O.3     1  UNL1        0.0000
     22 C           4.0372   -3.8678    2.9454 C.2     1  UNL1        0.0000
     23 O           4.9844   -3.1978    2.6244 O.2     1  UNL1        0.0000
     24 C           4.0108   -4.8549    4.0745 C.3     1  UNL1        0.0000
     25 C           1.9018   -3.3847    0.1486 C.3     1  UNL1        0.0000
     26 C           2.6791   -4.5662   -0.4206 C.3     1  UNL1        0.0000
     27 O           1.8143   -2.3555   -0.7905 O.3     1  UNL1        0.0000
     28 SI          0.6103   -2.0099   -1.8514 Si      1  UNL1        0.0000
     29 C          -1.0891   -1.9842   -0.9939 C.3     1  UNL1        0.0000
     30 C           0.5473   -3.2927   -3.2681 C.3     1  UNL1        0.0000
     31 C           1.1597   -0.2820   -2.4878 C.3     1  UNL1        0.0000
     32 C           1.5463    0.6256   -1.3181 C.3     1  UNL1        0.0000
     33 C           2.3679   -0.4099   -3.4181 C.3     1  UNL1        0.0000
     34 C           0.0151    0.3717   -3.2612 C.3     1  UNL1        0.0000
     35 H           0.8069   -2.9996    3.3656 H       1  UNL1        0.0000
     36 H           5.2182    4.4064    1.0019 H       1  UNL1        0.0000
     37 H           6.6863    3.5200    1.4183 H       1  UNL1        0.0000
     38 H           6.0019    3.3956   -0.2077 H       1  UNL1        0.0000
     39 H           3.9717    2.2609    0.7389 H       1  UNL1        0.0000
     40 H           6.6401    0.9698    1.4492 H       1  UNL1        0.0000
     41 H           5.2880   -0.9360    2.3523 H       1  UNL1        0.0000
     42 H           2.8331    0.6643    1.4917 H       1  UNL1        0.0000
     43 H           3.2883   -1.5216    3.5718 H       1  UNL1        0.0000
     44 H           0.1001   -0.6196    6.6755 H       1  UNL1        0.0000
     45 H           1.4350    0.5382    6.6787 H       1  UNL1        0.0000
     46 H           0.1409    0.7253    5.4890 H       1  UNL1        0.0000
     47 H           1.3581   -1.0279    1.2470 H       1  UNL1        0.0000
     48 H          -3.8859   -0.1860    4.4292 H       1  UNL1        0.0000
     49 H          -2.3239   -0.3974    5.2330 H       1  UNL1        0.0000
     50 H          -2.3919    0.2284    3.5782 H       1  UNL1        0.0000
     51 H          -4.3652   -2.6468    4.9760 H       1  UNL1        0.0000
     52 H          -3.2677   -3.8949    4.3664 H       1  UNL1        0.0000
     53 H          -2.7508   -2.8357    5.6776 H       1  UNL1        0.0000
     54 H          -4.5692   -1.8214    2.5619 H       1  UNL1        0.0000
     55 H          -3.1220   -1.2946    1.6922 H       1  UNL1        0.0000
     56 H          -3.3886   -3.0149    2.0030 H       1  UNL1        0.0000
     57 H           3.5714   -2.3677    1.0573 H       1  UNL1        0.0000
     58 H           3.4157   -5.7223    3.8057 H       1  UNL1        0.0000
     59 H           5.0221   -5.1435    4.3429 H       1  UNL1        0.0000
     60 H           3.5386   -4.3647    4.9262 H       1  UNL1        0.0000
     61 H           0.8994   -3.7113    0.4506 H       1  UNL1        0.0000
     62 H           2.7546   -5.3572    0.3199 H       1  UNL1        0.0000
     63 H           2.1665   -4.9434   -1.3003 H       1  UNL1        0.0000
     64 H           3.6772   -4.2446   -0.7078 H       1  UNL1        0.0000
     65 H          -1.8830   -1.6758   -1.6656 H       1  UNL1        0.0000
     66 H          -1.3489   -2.9722   -0.6218 H       1  UNL1        0.0000
     67 H          -1.0914   -1.3076   -0.1440 H       1  UNL1        0.0000
     68 H          -0.0675   -2.9487   -4.0932 H       1  UNL1        0.0000
     69 H           1.5390   -3.4963   -3.6612 H       1  UNL1        0.0000
     70 H           0.1284   -4.2364   -2.9288 H       1  UNL1        0.0000
     71 H           1.8106    1.6197   -1.6801 H       1  UNL1        0.0000
     72 H           0.7230    0.7257   -0.6141 H       1  UNL1        0.0000
     73 H           2.4045    0.2068   -0.7974 H       1  UNL1        0.0000
     74 H           2.7063    0.5751   -3.7398 H       1  UNL1        0.0000
     75 H           3.1900   -0.9055   -2.9078 H       1  UNL1        0.0000
     76 H           2.1133   -0.9864   -4.3038 H       1  UNL1        0.0000
     77 H           0.3282    1.3342   -3.6650 H       1  UNL1        0.0000
     78 H          -0.2997   -0.2569   -4.0908 H       1  UNL1        0.0000
     79 H          -0.8414    0.5373   -2.6136 H       1  UNL1        0.0000
@<TRIPOS>BOND
     1    76    33    1
     2    68    30    1
     3    78    34    1
     4    74    33    1
     5    77    34    1
     6    69    30    1
     7    33    75    1
     8    33    31    1
     9    30    70    1
    10    30    28    1
    11    34    79    1
    12    34    31    1
    13    31    28    1
    14    31    32    1
    15    28    29    1
    16    28    27    1
    17    71    32    1
    18    65    29    1
    19    32    73    1
    20    32    72    1
    21    63    26    1
    22    29    66    1
    23    29    67    1
    24    27    25    1
    25    64    26    1
    26    26    25    1
    27    26    62    1
    28    38     1    1
    29    25    61    1
    30    25    20    1
    31    39     2    1
    32     1    36    1
    33     1     2    1
    34     1    37    1
    35    57    20    1
    36    47    11    1
    37     2     3    1
    38    20    11    1
    39    20    21    1
    40    40     3    1
    41    42     5    1
    42     3     4    2
    43    55    19    1
    44    56    19    1
    45    11    12    1
    46    11     6    1
    47    14    13    2
    48     4     5    1
    49     4    41    1
    50     5     6    1
    51    21    22    1
    52    19    54    1
    53    19    16    1
    54    23    22    2
    55    12    13   am
    56    12    35    1
    57    13    15    1
    58    22    24    1
    59     6    43    1
    60     6     7    1
    61    50    17    1
    62    15    16    1
    63    16    17    1
    64    16    18    1
    65    58    24    1
    66     7     8    1
    67    24    59    1
    68    24    60    1
    69    17    48    1
    70    17    49    1
    71    52    18    1
    72    18    51    1
    73    18    53    1
    74     8     9    2
    75     8    10    1
    76    46    10    1
    77    10    44    1
    78    10    45    1
