@<TRIPOS>MOLECULE
3,5,6,23
 48 51 0 0 0
SMALL
GASTEIGER

@<TRIPOS>ATOM
      1 SI          9.8735    6.4860    6.9495 Si      1  UNL1        0.0000
      2 SI          5.0116    4.7300    9.6985 Si      1  UNL1        0.0000
      3 C           8.0652    6.5106    7.5031 C.3     1  UNL1        0.0000
      4 C           7.5050    5.5022    8.4514 C.2     1  UNL1        0.0000
      5 C           6.0636    5.8582    8.6043 C.3     1  UNL1        0.0000
      6 C           5.9589    7.2238    8.2395 C.3     1  UNL1        0.0000
      7 C           5.1669    8.4253    8.4775 C.ar    1  UNL1        0.0000
      8 C           3.9604    8.7141    9.0628 C.ar    1  UNL1        0.0000
      9 H           3.3337    7.9408    9.4756 H       1  UNL1        0.0000
     10 C           3.5380   10.0561    9.1157 C.ar    1  UNL1        0.0000
     11 H           2.5865   10.2716    9.5803 H       1  UNL1        0.0000
     12 C           4.2816   11.0898    8.6036 C.ar    1  UNL1        0.0000
     13 H           3.9205   12.1060    8.6669 H       1  UNL1        0.0000
     14 C           5.5310   10.8327    7.9946 C.ar    1  UNL1        0.0000
     15 C           5.9365    9.4968    7.9536 C.ar    1  UNL1        0.0000
     16 C           6.4262   11.7762    7.4411 C.ar    1  UNL1        0.0000
     17 H           6.1655   12.8246    7.4507 H       1  UNL1        0.0000
     18 C           7.6203   11.3642    6.9036 C.ar    1  UNL1        0.0000
     19 H           8.2939   12.1008    6.4898 H       1  UNL1        0.0000
     20 C           8.0112   10.0125    6.8645 C.ar    1  UNL1        0.0000
     21 H           8.9607    9.7443    6.4273 H       1  UNL1        0.0000
     22 C           7.1651    9.0675    7.3881 C.ar    1  UNL1        0.0000
     23 C           7.1883    7.6215    7.5676 C.3     1  UNL1        0.0000
     24 C           9.9234    7.1018    5.1421 C.3     1  UNL1        0.0000
     25 H           9.3492    8.0108    4.9948 H       1  UNL1        0.0000
     26 H           9.5142    6.3525    4.4700 H       1  UNL1        0.0000
     27 H          10.9422    7.3014    4.8266 H       1  UNL1        0.0000
     28 C          10.8278    7.6438    8.1336 C.3     1  UNL1        0.0000
     29 H          11.8483    7.7898    7.7927 H       1  UNL1        0.0000
     30 H          10.8720    7.2161    9.1309 H       1  UNL1        0.0000
     31 H          10.3625    8.6216    8.2180 H       1  UNL1        0.0000
     32 C          10.5655    4.7180    7.0147 C.3     1  UNL1        0.0000
     33 H          10.1355    4.0972    6.2339 H       1  UNL1        0.0000
     34 H          10.3342    4.2498    7.9655 H       1  UNL1        0.0000
     35 H          11.6438    4.7103    6.8873 H       1  UNL1        0.0000
     36 C           5.6872    4.9016   11.4736 C.3     1  UNL1        0.0000
     37 H           5.1559    4.2493   12.1600 H       1  UNL1        0.0000
     38 H           5.5970    5.9192   11.8445 H       1  UNL1        0.0000
     39 H           6.7378    4.6300   11.4998 H       1  UNL1        0.0000
     40 C           3.1611    5.1937    9.6285 C.3     1  UNL1        0.0000
     41 H           2.8720    5.5808    8.6564 H       1  UNL1        0.0000
     42 H           2.9004    5.9313   10.3802 H       1  UNL1        0.0000
     43 H           2.5538    4.3158    9.8216 H       1  UNL1        0.0000
     44 C           5.2196    2.9697    9.0061 C.3     1  UNL1        0.0000
     45 H           4.7333    2.2300    9.6346 H       1  UNL1        0.0000
     46 H           6.2717    2.7125    8.9431 H       1  UNL1        0.0000
     47 H           4.7962    2.8870    8.0078 H       1  UNL1        0.0000
     48 O           8.0839    4.5717    8.9786 O.2     1  UNL1        0.0000
@<TRIPOS>BOND
     1    26    24    1
     2    27    24    1
     3    25    24    1
     4    24     1    1
     5    33    32    1
     6    21    20    1
     7    19    18    1
     8    20    18   ar
     9    20    22   ar
    10    35    32    1
    11    18    16   ar
    12     1    32    1
    13     1     3    1
    14     1    28    1
    15    32    34    1
    16    22    23    1
    17    22    15   ar
    18    16    17    1
    19    16    14   ar
    20     3    23    1
    21     3     4    1
    22    23     6    1
    23    29    28    1
    24    15    14   ar
    25    15     7   ar
    26    14    12   ar
    27    47    44    1
    28    28    31    1
    29    28    30    1
    30     6     7    1
    31     6     5    1
    32     4     5    1
    33     4    48    2
    34     7     8   ar
    35    12    13    1
    36    12    10   ar
    37     5     2    1
    38    41    40    1
    39    46    44    1
    40    44    45    1
    41    44     2    1
    42     8    10   ar
    43     8     9    1
    44    10    11    1
    45    40     2    1
    46    40    43    1
    47    40    42    1
    48     2    36    1
    49    36    39    1
    50    36    38    1
    51    36    37    1
