@<TRIPOS>MOLECULE
3,5,7,9
 10 10 0 0 0
SMALL
GASTEIGER

@<TRIPOS>ATOM
      1 C          -0.2291    8.4005    8.2119 C.2     1  UNL1       -0.0654
      2 H          -1.1756    8.6801    8.6608 H       1  UNL1        0.0615
      3 C          -0.0737    7.6561    7.0153 C.2     1  UNL1       -0.0763
      4 H          -0.8812    7.2530    6.4162 H       1  UNL1        0.0578
      5 C           1.2992    7.3247    6.8955 C.3     1  UNL1        0.0054
      6 H           1.7220    6.6463    6.1642 H       1  UNL1        0.0394
      7 C           1.9830    7.8539    8.0154 C.2     1  UNL1       -0.0763
      8 H           3.0195    7.6722    8.2679 H       1  UNL1        0.0578
      9 C           1.0406    8.5209    8.8284 C.2     1  UNL1       -0.0654
     10 H           1.2267    8.9273    9.8148 H       1  UNL1        0.0615
@<TRIPOS>BOND
     1     6     5    1
     2     4     3    1
     3     5     3    1
     4     5     7    1
     5     3     1    2
     6     7     8    1
     7     7     9    2
     8     1     2    1
     9     1     9    1
    10     9    10    1
