@<TRIPOS>MOLECULE
1,3,11,13
 20 20 0 0 0
SMALL
GASTEIGER

@<TRIPOS>ATOM
      1 C           5.7358    5.6873    5.6874 C.3     1  UNL1       -0.0348
      2 H           4.7032    5.9797    5.5188 H       1  UNL1        0.0306
      3 C           5.9799    4.6860    6.5937 C.3     1  UNL1       -0.0348
      4 H           5.1269    4.2587    7.1205 H       1  UNL1        0.0306
      5 C           7.3032    4.4230    7.2647 C.3     1  UNL1       -0.0494
      6 H           7.4702    5.1710    8.0489 H       1  UNL1        0.0268
      7 H           7.2413    3.4508    7.7598 H       1  UNL1        0.0268
      8 C           8.5006    4.4081    6.2940 C.3     1  UNL1       -0.0494
      9 H           9.2747    3.7632    6.7150 H       1  UNL1        0.0268
     10 H           8.9310    5.4073    6.2081 H       1  UNL1        0.0268
     11 C           8.1293    3.9008    4.9163 C.3     1  UNL1       -0.0348
     12 H           8.6479    2.9912    4.6258 H       1  UNL1        0.0306
     13 C           7.7111    4.7434    3.8773 C.3     1  UNL1       -0.0348
     14 H           7.9529    4.4345    2.8613 H       1  UNL1        0.0306
     15 C           7.5441    6.2419    3.9964 C.3     1  UNL1       -0.0494
     16 H           8.5322    6.7160    3.9880 H       1  UNL1        0.0268
     17 H           7.0157    6.5928    3.1065 H       1  UNL1        0.0268
     18 C           6.7633    6.6960    5.2465 C.3     1  UNL1       -0.0494
     19 H           6.2618    7.6393    5.0179 H       1  UNL1        0.0268
     20 H           7.4515    6.8905    6.0707 H       1  UNL1        0.0268
@<TRIPOS>BOND
     1    14    13    1
     2    17    15    1
     3    13    15    1
     4    13    11    1
     5    16    15    1
     6    15    18    1
     7    12    11    1
     8    11     8    1
     9    19    18    1
    10    18     1    1
    11    18    20    1
    12     2     1    1
    13     1     3    1
    14    10     8    1
    15     8     9    1
    16     8     5    1
    17     3     4    1
    18     3     5    1
    19     5     7    1
    20     5     6    1
