@<TRIPOS>MOLECULE
5,6,8,9
 51 50 0 0 0
SMALL
GASTEIGER

@<TRIPOS>ATOM
      1 SI          1.4863    9.5619    2.1719 Si      1  UNL1        0.0000
      2 SI          6.6498    9.8686    4.1620 Si      1  UNL1        0.0000
      3 SI          8.5822    5.0885    3.7737 Si      1  UNL1        0.0000
      4 C           2.3064    8.4397    3.4306 C.2     1  UNL1        0.0000
      5 C           3.5892    8.2029    3.6628 C.1     1  UNL1        0.0000
      6 C           4.7884    7.7903    3.8307 C.2     1  UNL1        0.0000
      7 C           5.8775    8.2061    4.7829 C.3     1  UNL1        0.0000
      8 C           6.9855    7.1817    4.8482 C.3     1  UNL1        0.0000
      9 C           7.1283    6.2679    3.8682 C.3     1  UNL1        0.0000
     10 C           7.9433    7.3644    6.0024 C.3     1  UNL1        0.0000
     11 C           0.2870    8.4949    1.1209 C.3     1  UNL1        0.0000
     12 C           0.4308   10.8685    3.0860 C.3     1  UNL1        0.0000
     13 C           2.6455   10.4933    0.9703 C.3     1  UNL1        0.0000
     14 C           5.2641   11.0161    3.5353 C.3     1  UNL1        0.0000
     15 C           7.8909    9.4275    2.7736 C.3     1  UNL1        0.0000
     16 C           7.5604   10.7949    5.5671 C.3     1  UNL1        0.0000
     17 C          10.3029    5.9264    3.5994 C.3     1  UNL1        0.0000
     18 C           8.7487    3.8079    5.2032 C.3     1  UNL1        0.0000
     19 C           8.3391    4.0864    2.1468 C.3     1  UNL1        0.0000
     20 H           1.5979    7.9014    4.0580 H       1  UNL1        0.0000
     21 H           5.4524    8.3677    5.7830 H       1  UNL1        0.0000
     22 H           8.2058    6.4005    6.4306 H       1  UNL1        0.0000
     23 H           8.8615    7.8346    5.6548 H       1  UNL1        0.0000
     24 H           7.5114    7.9878    6.7816 H       1  UNL1        0.0000
     25 H           0.8132    7.7833    0.4904 H       1  UNL1        0.0000
     26 H          -0.3247    9.1135    0.4704 H       1  UNL1        0.0000
     27 H          -0.3872    7.9279    1.7562 H       1  UNL1        0.0000
     28 H          -0.3031   10.3975    3.7329 H       1  UNL1        0.0000
     29 H          -0.1085   11.5020    2.3878 H       1  UNL1        0.0000
     30 H           1.0465   11.5128    3.7064 H       1  UNL1        0.0000
     31 H           2.1141   10.7568    0.0599 H       1  UNL1        0.0000
     32 H           3.0094   11.4167    1.4094 H       1  UNL1        0.0000
     33 H           3.5075    9.9016    0.6807 H       1  UNL1        0.0000
     34 H           4.6185   10.5055    2.8302 H       1  UNL1        0.0000
     35 H           4.6385   11.3573    4.3540 H       1  UNL1        0.0000
     36 H           5.6758   11.8949    3.0493 H       1  UNL1        0.0000
     37 H           8.9133    9.6120    3.0885 H       1  UNL1        0.0000
     38 H           7.8086    8.3688    2.5215 H       1  UNL1        0.0000
     39 H           7.7234   10.0097    1.8732 H       1  UNL1        0.0000
     40 H           8.4602   10.2836    5.8906 H       1  UNL1        0.0000
     41 H           7.8534   11.7820    5.2245 H       1  UNL1        0.0000
     42 H           6.9261   10.9304    6.4375 H       1  UNL1        0.0000
     43 H          10.2744    6.7374    2.8783 H       1  UNL1        0.0000
     44 H          10.6424    6.3395    4.5428 H       1  UNL1        0.0000
     45 H          11.0521    5.2158    3.2651 H       1  UNL1        0.0000
     46 H           9.3315    4.2097    6.0261 H       1  UNL1        0.0000
     47 H           9.2455    2.9019    4.8686 H       1  UNL1        0.0000
     48 H           7.7780    3.5243    5.5997 H       1  UNL1        0.0000
     49 H           8.9232    3.1710    2.1618 H       1  UNL1        0.0000
     50 H           8.6701    4.6571    1.2834 H       1  UNL1        0.0000
     51 H           7.2940    3.8087    1.9929 H       1  UNL1        0.0000
@<TRIPOS>BOND
     1    31    13    1
     2    26    11    1
     3    25    11    1
     4    33    13    1
     5    13    32    1
     6    13     1    1
     7    11    27    1
     8    11     1    1
     9    50    19    1
    10    39    15    1
    11    51    19    1
    12    19    49    1
    13    19     3    1
    14     1    12    1
    15     1     4    1
    16    29    12    1
    17    38    15    1
    18    15    37    1
    19    15     2    1
    20    34    14    1
    21    43    17    1
    22    36    14    1
    23    12    30    1
    24    12    28    1
    25    45    17    1
    26     4     5    2
    27     4    20    1
    28    14     2    1
    29    14    35    1
    30    17     3    1
    31    17    44    1
    32     5     6    2
    33     3     9    1
    34     3    18    1
    35     6     7    1
    36     9     8    1
    37     2     7    1
    38     2    16    1
    39     7     8    1
    40     7    21    1
    41     8    10    1
    42    47    18    1
    43    18    48    1
    44    18    46    1
    45    41    16    1
    46    16    40    1
    47    16    42    1
    48    23    10    1
    49    10    22    1
    50    10    24    1
