@<TRIPOS>MOLECULE
7,8,9,10
 54 57 0 0 0
SMALL
GASTEIGER

@<TRIPOS>ATOM
      1 B           3.0224    2.7976    8.3690 B       1  UNL1        0.0000
      2 B           4.1247    3.8038    7.1375 B       1  UNL1        0.0000
      3 C           3.1187    4.4411    8.0989 C.3     1  UNL1        0.0000
      4 C           1.7719    3.8979    7.9213 C.3     1  UNL1        0.0000
      5 C           1.8939    2.8166    7.0173 C.3     1  UNL1        0.0000
      6 C           3.2754    2.6432    6.6144 C.2     1  UNL1        0.0000
      7 C           3.4797    1.4823    5.7453 C.3     1  UNL1        0.0000
      8 C           2.6561    0.3474    5.8753 C.3     1  UNL1        0.0000
      9 C           1.3152    0.5417    6.2647 C.3     1  UNL1        0.0000
     10 C           0.9042    1.8900    6.4820 C.3     1  UNL1        0.0000
     11 C           3.1829    1.7986    9.6077 C.3     1  UNL1        0.0000
     12 C           3.0944    2.5890   10.9235 C.3     1  UNL1        0.0000
     13 H           2.1282    3.0808   11.0095 H       1  UNL1        0.0000
     14 H           3.8702    3.3496   10.9656 H       1  UNL1        0.0000
     15 H           3.2199    1.9233   11.7759 H       1  UNL1        0.0000
     16 C           4.5495    1.0960    9.5570 C.3     1  UNL1        0.0000
     17 H           5.3560    1.8238    9.5936 H       1  UNL1        0.0000
     18 H           4.6499    0.5195    8.6401 H       1  UNL1        0.0000
     19 H           4.6604    0.4189   10.4026 H       1  UNL1        0.0000
     20 C           2.0936    0.7151    9.6178 C.3     1  UNL1        0.0000
     21 H           1.1031    1.1617    9.6327 H       1  UNL1        0.0000
     22 H           2.1994    0.0835   10.4988 H       1  UNL1        0.0000
     23 H           2.1732    0.0840    8.7360 H       1  UNL1        0.0000
     24 C           5.6788    4.1710    6.9605 C.3     1  UNL1        0.0000
     25 C           6.2534    4.7724    8.2515 C.3     1  UNL1        0.0000
     26 H           7.3004    5.0422    8.1160 H       1  UNL1        0.0000
     27 H           6.1891    4.0591    9.0707 H       1  UNL1        0.0000
     28 H           5.7078    5.6685    8.5352 H       1  UNL1        0.0000
     29 C           6.5466    2.9676    6.5687 C.3     1  UNL1        0.0000
     30 H           6.2757    2.6046    5.5805 H       1  UNL1        0.0000
     31 H           6.4314    2.1548    7.2823 H       1  UNL1        0.0000
     32 H           7.5988    3.2504    6.5412 H       1  UNL1        0.0000
     33 C           5.7991    5.2261    5.8472 C.3     1  UNL1        0.0000
     34 H           5.4077    4.8386    4.9091 H       1  UNL1        0.0000
     35 H           6.8407    5.5067    5.6959 H       1  UNL1        0.0000
     36 H           5.2360    6.1198    6.1054 H       1  UNL1        0.0000
     37 SI          0.1804    4.5993    8.6468 Si      1  UNL1        0.0000
     38 C           0.6278    6.0156    9.8402 C.3     1  UNL1        0.0000
     39 H          -0.2685    6.4579   10.2642 H       1  UNL1        0.0000
     40 H           1.1691    6.8058    9.3293 H       1  UNL1        0.0000
     41 H           1.2439    5.6734   10.6665 H       1  UNL1        0.0000
     42 C          -0.8018    5.2632    7.1532 C.3     1  UNL1        0.0000
     43 H          -1.7324    5.7252    7.4688 H       1  UNL1        0.0000
     44 H          -1.0489    4.4739    6.4490 H       1  UNL1        0.0000
     45 H          -0.2312    6.0108    6.6104 H       1  UNL1        0.0000
     46 C          -0.8666    3.3108    9.5936 C.3     1  UNL1        0.0000
     47 H          -1.8195    3.7430    9.8851 H       1  UNL1        0.0000
     48 H          -0.3750    2.9737   10.5018 H       1  UNL1        0.0000
     49 H          -1.0828    2.4334    8.9913 H       1  UNL1        0.0000
     50 H           3.2537    5.2297    8.8205 H       1  UNL1        0.0000
     51 H          -0.1252    2.0636    6.7814 H       1  UNL1        0.0000
     52 H           0.6448   -0.2944    6.4272 H       1  UNL1        0.0000
     53 H           3.0278   -0.6464    5.6493 H       1  UNL1        0.0000
     54 H           4.4742    1.3382    5.3397 H       1  UNL1        0.0000
@<TRIPOS>BOND
     1    34    33    1
     2    54     7    1
     3    30    29    1
     4    53     8    1
     5    35    33    1
     6     7     8    1
     7     7     6    1
     8    33    36    1
     9    33    24    1
    10     8     9    1
    11     9    52    1
    12     9    10    1
    13    44    42    1
    14    10    51    1
    15    10     5    1
    16    32    29    1
    17    29    24    1
    18    29    31    1
    19    45    42    1
    20     6     5    1
    21     6     2    2
    22    24     2    1
    23    24    25    1
    24     5     4    1
    25     5     1    1
    26     2     3    1
    27    42    43    1
    28    42    37    1
    29     4     3    1
    30     4     1    1
    31     4    37    1
    32     3     1    1
    33     3    50    1
    34    26    25    1
    35    25    28    1
    36    25    27    1
    37     1    11    1
    38    18    16    1
    39    37    46    1
    40    37    38    1
    41    23    20    1
    42    49    46    1
    43    40    38    1
    44    16    17    1
    45    16    11    1
    46    16    19    1
    47    46    47    1
    48    46    48    1
    49    11    20    1
    50    11    12    1
    51    20    21    1
    52    20    22    1
    53    38    39    1
    54    38    41    1
    55    12    14    1
    56    12    13    1
    57    12    15    1
