@<TRIPOS>MOLECULE
4,6,8,19
 20 20 0 0 0
SMALL
GASTEIGER

@<TRIPOS>ATOM
      1 C           9.0949    6.4363   13.7328 C.3     1  UNL1       -0.0494
      2 H           9.8227    5.9833   14.4177 H       1  UNL1        0.0268
      3 H           9.1967    5.9188   12.7764 H       1  UNL1        0.0268
      4 C           6.4710    8.4510   14.6063 C.3     1  UNL1       -0.0348
      5 H           5.4683    8.8713   14.5548 H       1  UNL1        0.0306
      6 C           6.7075    7.3088   13.8495 C.3     1  UNL1       -0.0348
      7 H           5.8871    6.9571   13.2318 H       1  UNL1        0.0306
      8 C           9.2450    8.8783   14.4505 C.3     1  UNL1       -0.0348
      9 H           9.8369    9.7827   14.3595 H       1  UNL1        0.0306
     10 C           7.1686    8.7595   15.9083 C.3     1  UNL1       -0.0494
     11 H           6.7773    8.1028   16.6965 H       1  UNL1        0.0268
     12 H           6.9142    9.7816   16.1961 H       1  UNL1        0.0268
     13 C           7.6692    6.2225   14.2722 C.3     1  UNL1       -0.0494
     14 H           7.2999    5.2587   13.9130 H       1  UNL1        0.0268
     15 H           7.6862    6.1665   15.3629 H       1  UNL1        0.0268
     16 C           8.7000    8.6262   15.8340 C.3     1  UNL1       -0.0494
     17 H           9.1491    9.3406   16.5295 H       1  UNL1        0.0268
     18 H           9.0069    7.6309   16.1627 H       1  UNL1        0.0268
     19 C           9.4465    7.8856   13.5188 C.3     1  UNL1       -0.0348
     20 H          10.2148    8.0376   12.7667 H       1  UNL1        0.0306
@<TRIPOS>BOND
     1    20    19    1
     2     3     1    1
     3     7     6    1
     4    19     1    1
     5    19     8    1
     6     1    13    1
     7     1     2    1
     8     6    13    1
     9     6     4    1
    10    14    13    1
    11    13    15    1
    12     9     8    1
    13     8    16    1
    14     5     4    1
    15     4    10    1
    16    16    10    1
    17    16    18    1
    18    16    17    1
    19    10    12    1
    20    10    11    1
