@<TRIPOS>MOLECULE
1,2,3,4
 10 10 0 0 0
SMALL
GASTEIGER

@<TRIPOS>ATOM
      1 C           5.2471    5.9135   12.8974 C.2     1  UNL1       -0.0763
      2 C           6.2591    6.1230   13.8643 C.3     1  UNL1        0.0054
      3 C           5.6877    6.8279   14.9502 C.2     1  UNL1       -0.0763
      4 C           4.3249    7.0615   14.6508 C.2     1  UNL1       -0.0654
      5 C           4.0524    6.4956   13.3828 C.2     1  UNL1       -0.0654
      6 H           5.3468    5.3115   12.0015 H       1  UNL1        0.0578
      7 H           7.2667    5.7211   13.8271 H       1  UNL1        0.0394
      8 H           6.1818    7.0459   15.8900 H       1  UNL1        0.0578
      9 H           3.5884    7.4821   15.3245 H       1  UNL1        0.0615
     10 H           3.0732    6.4133   12.9272 H       1  UNL1        0.0615
@<TRIPOS>BOND
     1     6     1    1
     2     1     5    2
     3     1     2    1
     4    10     5    1
     5     5     4    1
     6     7     2    1
     7     2     3    1
     8     4     3    2
     9     4     9    1
    10     3     8    1
