@<TRIPOS>MOLECULE
1,3,4,5
 13 12 0 0 0
SMALL
GASTEIGER

@<TRIPOS>ATOM
      1 C           0.9137    5.4244    9.8580 C.3     1  UNL1       -0.0528
      2 C           1.2304    6.8447   10.3315 C.3     1  UNL1       -0.0497
      3 C           2.6754    7.0796    9.9193 C.3     1  UNL1       -0.0349
      4 C           3.7171    6.3766   10.5098 C.3     1  UNL1       -0.0348
      5 C           3.4850    5.1097   11.1030 C.3     1  UNL1       -0.0494
      6 H           0.1070    5.4382    9.1211 H       1  UNL1        0.0265
      7 H           0.6021    4.7775   10.6814 H       1  UNL1        0.0265
      8 H           0.5878    7.5836    9.8499 H       1  UNL1        0.0268
      9 H           1.1209    6.9564   11.4150 H       1  UNL1        0.0268
     10 H           2.8891    8.0356    9.4526 H       1  UNL1        0.0306
     11 H           4.7381    6.6916   10.3216 H       1  UNL1        0.0306
     12 H           4.3637    4.5888   11.4647 H       1  UNL1        0.0268
     13 H           2.6387    4.9957   11.7729 H       1  UNL1        0.0268
@<TRIPOS>BOND
     1     6     1    1
     2    10     3    1
     3     8     2    1
     4     1     2    1
     5     1     7    1
     6     3     2    1
     7     3     4    1
     8    11     4    1
     9     2     9    1
    10     4     5    1
    11     5    12    1
    12     5    13    1
