@<TRIPOS>MOLECULE
2,3,4,8
 39 39 0 0 0
SMALL
GASTEIGER

@<TRIPOS>ATOM
      1 SI          5.1364    2.2958   13.8345 Si      1  UNL1        0.0000
      2 C           3.9520    4.8701   14.7621 C.2     1  UNL1        0.0000
      3 C           3.8965    5.5474   13.4961 C.2     1  UNL1        0.0000
      4 C           3.7855    4.8533   12.2983 C.3     1  UNL1        0.0000
      5 C           2.6989    6.6350   16.0192 C.ar    1  UNL1        0.0000
      6 C           4.2018    4.8160   11.0481 C.3     1  UNL1        0.0000
      7 C           4.4838    5.4637   17.1152 C.ar    1  UNL1        0.0000
      8 C           4.0385    3.4739   14.8469 C.3     1  UNL1        0.0000
      9 C           3.7064    5.6735   15.9790 C.ar    1  UNL1        0.0000
     10 C           2.4686    7.3615   17.1723 C.ar    1  UNL1        0.0000
     11 C           5.4708    5.5068   10.6216 C.3     1  UNL1        0.0000
     12 C           6.7452    3.1979   13.3322 C.3     1  UNL1        0.0000
     13 C           3.4919    4.0681    9.9588 C.3     1  UNL1        0.0000
     14 C           3.2509    7.1503   18.2954 C.ar    1  UNL1        0.0000
     15 C           4.2592    1.5094   12.3249 C.3     1  UNL1        0.0000
     16 C           4.2599    6.2018   18.2626 C.ar    1  UNL1        0.0000
     17 C           5.6056    0.8994   15.0507 C.3     1  UNL1        0.0000
     18 H           3.8304    3.0910   15.8459 H       1  UNL1        0.0000
     19 H           3.7781    6.6300   13.5109 H       1  UNL1        0.0000
     20 H           2.0695    6.7931   15.1517 H       1  UNL1        0.0000
     21 H           1.6732    8.0927   17.1934 H       1  UNL1        0.0000
     22 H           3.0723    7.7199   19.1955 H       1  UNL1        0.0000
     23 H           4.8718    6.0335   19.1368 H       1  UNL1        0.0000
     24 H           5.2705    4.7230   17.0885 H       1  UNL1        0.0000
     25 H           6.1993    4.7814   10.2597 H       1  UNL1        0.0000
     26 H           5.9093    6.0701   11.4414 H       1  UNL1        0.0000
     27 H           5.2482    6.1931    9.8043 H       1  UNL1        0.0000
     28 H           3.2087    4.7533    9.1595 H       1  UNL1        0.0000
     29 H           2.5930    3.5901   10.3433 H       1  UNL1        0.0000
     30 H           4.1432    3.3063    9.5313 H       1  UNL1        0.0000
     31 H           4.7645    1.7414   11.3934 H       1  UNL1        0.0000
     32 H           3.2305    1.8703   12.2510 H       1  UNL1        0.0000
     33 H           4.2180    0.4289   12.4227 H       1  UNL1        0.0000
     34 H           7.3749    2.5475   12.7341 H       1  UNL1        0.0000
     35 H           7.3152    3.4888   14.2091 H       1  UNL1        0.0000
     36 H           6.5470    4.0931   12.7556 H       1  UNL1        0.0000
     37 H           6.2519    0.1701   14.5731 H       1  UNL1        0.0000
     38 H           4.7220    0.3764   15.4023 H       1  UNL1        0.0000
     39 H           6.1309    1.2811   15.9209 H       1  UNL1        0.0000
@<TRIPOS>BOND
     1    28    13    1
     2    30    13    1
     3    27    11    1
     4    13    29    1
     5    13     6    1
     6    25    11    1
     7    11     6    1
     8    11    26    1
     9     6     4    1
    10    31    15    1
    11    32    15    1
    12     4     3    1
    13    15    33    1
    14    15     1    1
    15    34    12    1
    16    36    12    1
    17    12     1    1
    18    12    35    1
    19     3    19    1
    20     3     2    2
    21     1     8    1
    22     1    17    1
    23    37    17    1
    24     2     8    1
    25     2     9    1
    26     8    18    1
    27    17    38    1
    28    17    39    1
    29    20     5    1
    30     9     5   ar
    31     9     7   ar
    32     5    10   ar
    33    24     7    1
    34     7    16   ar
    35    10    21    1
    36    10    14   ar
    37    16    14   ar
    38    16    23    1
    39    14    22    1
