@<TRIPOS>MOLECULE
1,3,11,13
 20 20 0 0 0
SMALL
GASTEIGER

@<TRIPOS>ATOM
      1 C          12.1977   12.4569    5.4324 C.3     1  UNL1       -0.0348
      2 H          11.2521   12.3467    4.9047 H       1  UNL1        0.0306
      3 C          12.7577   11.2812    5.9817 C.3     1  UNL1       -0.0348
      4 H          12.2108   10.3541    5.7982 H       1  UNL1        0.0306
      5 C          14.2509   11.0486    6.0837 C.3     1  UNL1       -0.0494
      6 H          14.6603   10.9160    5.0743 H       1  UNL1        0.0268
      7 H          14.4131   10.1109    6.6189 H       1  UNL1        0.0268
      8 C          15.0064   12.1725    6.8153 C.3     1  UNL1       -0.0494
      9 H          15.8203   11.7286    7.3937 H       1  UNL1        0.0268
     10 H          15.4569   12.8558    6.0909 H       1  UNL1        0.0268
     11 C          14.1407   12.9853    7.7525 C.3     1  UNL1       -0.0348
     12 H          14.4218   12.9153    8.8012 H       1  UNL1        0.0306
     13 C          13.4527   14.1107    7.3567 C.3     1  UNL1       -0.0348
     14 H          13.2628   14.8764    8.1107 H       1  UNL1        0.0306
     15 C          13.4156   14.6385    5.9420 C.3     1  UNL1       -0.0494
     16 H          14.3893   15.0922    5.7171 H       1  UNL1        0.0268
     17 H          12.6704   15.4354    5.8949 H       1  UNL1        0.0268
     18 C          13.0671   13.5761    4.8886 C.3     1  UNL1       -0.0494
     19 H          12.5408   14.0648    4.0656 H       1  UNL1        0.0268
     20 H          13.9784   13.1386    4.4734 H       1  UNL1        0.0268
@<TRIPOS>BOND
     1    19    18    1
     2    20    18    1
     3    18     1    1
     4    18    15    1
     5     2     1    1
     6     6     5    1
     7     1     3    1
     8    16    15    1
     9     4     3    1
    10    17    15    1
    11    15    13    1
    12     3     5    1
    13     5     7    1
    14     5     8    1
    15    10     8    1
    16     8     9    1
    17     8    11    1
    18    13    11    1
    19    13    14    1
    20    11    12    1
