@<TRIPOS>MOLECULE
1,2,3,5
 108 114 0 0 0
SMALL
GASTEIGER

@<TRIPOS>ATOM
      1 P           7.3110    9.1573    5.4446 P.3     1  UNL1        0.0000
      2 P           8.7506    7.1478    7.1620 P.3     1  UNL1        0.0000
      3 P           6.1284    6.4558    5.1882 P.3     1  UNL1        0.0000
      4 SI          9.2446    9.6940    3.4742 Si      1  UNL1        0.0000
      5 N           8.7539    8.0105    3.3880 N.pl3   1  UNL1        0.0000
      6 C           8.7987    7.3677    2.1472 C.ar    1  UNL1        0.0000
      7 C          10.0007    6.7964    1.6822 C.ar    1  UNL1        0.0000
      8 C          10.0436    6.2246    0.4203 C.ar    1  UNL1        0.0000
      9 H          10.9684    5.7938    0.0668 H       1  UNL1        0.0000
     10 C           8.9356    6.2073   -0.4007 C.ar    1  UNL1        0.0000
     11 H           8.9912    5.7736   -1.3886 H       1  UNL1        0.0000
     12 C           7.7505    6.7500    0.0570 C.ar    1  UNL1        0.0000
     13 H           6.8850    6.7344   -0.5865 H       1  UNL1        0.0000
     14 C           7.6542    7.3187    1.3167 C.ar    1  UNL1        0.0000
     15 C          11.2686    6.8270    2.5019 C.3     1  UNL1        0.0000
     16 H          11.0407    7.2825    3.4686 H       1  UNL1        0.0000
     17 C          11.8057    5.4179    2.7606 C.3     1  UNL1        0.0000
     18 H          11.0571    4.8207    3.2745 H       1  UNL1        0.0000
     19 H          12.6976    5.4707    3.3832 H       1  UNL1        0.0000
     20 H          12.0700    4.9184    1.8315 H       1  UNL1        0.0000
     21 C          12.3302    7.6765    1.7972 C.3     1  UNL1        0.0000
     22 H          12.6638    7.1921    0.8819 H       1  UNL1        0.0000
     23 H          13.1966    7.8120    2.4430 H       1  UNL1        0.0000
     24 H          11.9303    8.6539    1.5358 H       1  UNL1        0.0000
     25 C           6.3212    7.8450    1.7968 C.3     1  UNL1        0.0000
     26 H           6.2886    7.6620    2.8805 H       1  UNL1        0.0000
     27 C           5.1175    7.1379    1.1709 C.3     1  UNL1        0.0000
     28 H           4.9445    7.4908    0.1565 H       1  UNL1        0.0000
     29 H           4.2268    7.3605    1.7574 H       1  UNL1        0.0000
     30 H           5.2514    6.0597    1.1517 H       1  UNL1        0.0000
     31 C           6.1756    9.3507    1.5690 C.3     1  UNL1        0.0000
     32 H           6.8332    9.9081    2.2277 H       1  UNL1        0.0000
     33 H           5.1508    9.6557    1.7751 H       1  UNL1        0.0000
     34 H           6.4132    9.6002    0.5368 H       1  UNL1        0.0000
     35 C           9.4008   10.4719    1.7417 C.3     1  UNL1        0.0000
     36 H           9.2240    9.7411    0.9613 H       1  UNL1        0.0000
     37 H          10.4052   10.8587    1.6144 H       1  UNL1        0.0000
     38 H           8.7139   11.2965    1.5931 H       1  UNL1        0.0000
     39 C          10.9640    9.9198    4.3069 C.3     1  UNL1        0.0000
     40 H          11.0089    9.4516    5.2842 H       1  UNL1        0.0000
     41 H          11.1301   10.9840    4.4444 H       1  UNL1        0.0000
     42 H          11.7791    9.5368    3.7066 H       1  UNL1        0.0000
     43 C           8.0306   10.5279    4.6771 C.3     1  UNL1        0.0000
     44 H           8.5536   11.1398    5.4161 H       1  UNL1        0.0000
     45 C           7.1738    9.3740    7.2427 C.ar    1  UNL1        0.0000
     46 C           6.4780   10.4372    7.8045 C.ar    1  UNL1        0.0000
     47 H           5.9275   11.1102    7.1623 H       1  UNL1        0.0000
     48 C           6.5012   10.6231    9.1746 C.ar    1  UNL1        0.0000
     49 H           5.9532   11.4416    9.6184 H       1  UNL1        0.0000
     50 C           7.2378    9.7668    9.9803 C.ar    1  UNL1        0.0000
     51 H           7.2690    9.9259   11.0485 H       1  UNL1        0.0000
     52 C           7.9402    8.7104    9.4255 C.ar    1  UNL1        0.0000
     53 H           8.5250    8.0586   10.0602 H       1  UNL1        0.0000
     54 C           7.8995    8.4944    8.0517 C.ar    1  UNL1        0.0000
     55 C          10.5042    7.6724    7.2231 C.ar    1  UNL1        0.0000
     56 C          10.9433    8.7041    8.0473 C.ar    1  UNL1        0.0000
     57 H          10.2445    9.2417    8.6715 H       1  UNL1        0.0000
     58 C          12.2801    9.0613    8.0586 C.ar    1  UNL1        0.0000
     59 H          12.6099    9.8657    8.7001 H       1  UNL1        0.0000
     60 C          13.1897    8.3986    7.2516 C.ar    1  UNL1        0.0000
     61 H          14.2312    8.6838    7.2637 H       1  UNL1        0.0000
     62 C          12.7556    7.3799    6.4201 C.ar    1  UNL1        0.0000
     63 H          13.4572    6.8692    5.7770 H       1  UNL1        0.0000
     64 C          11.4205    7.0203    6.3984 C.ar    1  UNL1        0.0000
     65 H          11.0838    6.2470    5.7218 H       1  UNL1        0.0000
     66 C           8.7912    5.7637    8.3464 C.ar    1  UNL1        0.0000
     67 C           7.8353    5.6272    9.3480 C.ar    1  UNL1        0.0000
     68 H           7.0407    6.3525    9.4445 H       1  UNL1        0.0000
     69 C           7.8933    4.5578   10.2227 C.ar    1  UNL1        0.0000
     70 H           7.1576    4.4737   11.0096 H       1  UNL1        0.0000
     71 C           8.8801    3.5966   10.0868 C.ar    1  UNL1        0.0000
     72 H           8.9210    2.7618   10.7711 H       1  UNL1        0.0000
     73 C           9.8066    3.7037    9.0625 C.ar    1  UNL1        0.0000
     74 H          10.5659    2.9457    8.9382 H       1  UNL1        0.0000
     75 C           9.7661    4.7799    8.1967 C.ar    1  UNL1        0.0000
     76 H          10.4850    4.8520    7.3955 H       1  UNL1        0.0000
     77 C           5.5458    9.0933    4.9707 C.ar    1  UNL1        0.0000
     78 C           4.8061   10.2327    4.7015 C.ar    1  UNL1        0.0000
     79 H           5.2985   11.1954    4.7280 H       1  UNL1        0.0000
     80 C           3.4686   10.1110    4.3634 C.ar    1  UNL1        0.0000
     81 H           2.8832   10.9922    4.1441 H       1  UNL1        0.0000
     82 C           2.8820    8.8571    4.2900 C.ar    1  UNL1        0.0000
     83 H           1.8403    8.7660    4.0180 H       1  UNL1        0.0000
     84 C           3.6240    7.7122    4.5384 C.ar    1  UNL1        0.0000
     85 H           3.1626    6.7398    4.4474 H       1  UNL1        0.0000
     86 C           4.9621    7.8296    4.8833 C.ar    1  UNL1        0.0000
     87 C           5.5525    5.8461    6.8033 C.ar    1  UNL1        0.0000
     88 C           4.8181    6.6427    7.6758 C.ar    1  UNL1        0.0000
     89 H           4.6050    7.6728    7.4215 H       1  UNL1        0.0000
     90 C           4.3457    6.1087    8.8619 C.ar    1  UNL1        0.0000
     91 H           3.7643    6.7259    9.5322 H       1  UNL1        0.0000
     92 C           4.6050    4.7862    9.1829 C.ar    1  UNL1        0.0000
     93 H           4.2148    4.3682   10.0993 H       1  UNL1        0.0000
     94 C           5.3744    4.0035    8.3352 C.ar    1  UNL1        0.0000
     95 H           5.5959    2.9792    8.5957 H       1  UNL1        0.0000
     96 C           5.8578    4.5323    7.1546 C.ar    1  UNL1        0.0000
     97 H           6.4664    3.9349    6.4887 H       1  UNL1        0.0000
     98 C           5.5494    5.0891    4.1274 C.ar    1  UNL1        0.0000
     99 C           4.3558    4.4249    4.4071 C.ar    1  UNL1        0.0000
    100 H           3.7688    4.6999    5.2729 H       1  UNL1        0.0000
    101 C           3.9335    3.3919    3.5921 C.ar    1  UNL1        0.0000
    102 H           3.0056    2.8831    3.8108 H       1  UNL1        0.0000
    103 C           4.7015    2.9993    2.5067 C.ar    1  UNL1        0.0000
    104 H           4.3707    2.1842    1.8799 H       1  UNL1        0.0000
    105 C           5.8950    3.6453    2.2364 C.ar    1  UNL1        0.0000
    106 H           6.5046    3.3384    1.3995 H       1  UNL1        0.0000
    107 C           6.3167    4.6912    3.0395 C.ar    1  UNL1        0.0000
    108 H           7.2513    5.1883    2.8264 H       1  UNL1        0.0000
@<TRIPOS>BOND
     1    11    10    1
     2    13    12    1
     3    10    12   ar
     4    10     8   ar
     5    12    14   ar
     6     9     8    1
     7    28    27    1
     8     8     7   ar
     9    34    31    1
    10    22    21    1
    11    36    35    1
    12    30    27    1
    13    27    29    1
    14    27    25    1
    15    14    25    1
    16    14     6   ar
    17   106   105    1
    18    24    21    1
    19    31    33    1
    20    31    25    1
    21    31    32    1
    22    38    35    1
    23    37    35    1
    24     7     6   ar
    25     7    15    1
    26    35     4    1
    27    25    26    1
    28    21    23    1
    29    21    15    1
    30    20    17    1
    31   104   103    1
    32     6     5    1
    33   105   103   ar
    34   105   107   ar
    35    15    17    1
    36    15    16    1
    37   103   101   ar
    38    17    18    1
    39    17    19    1
    40   108   107    1
    41   107    98   ar
    42     5     4    1
    43     4    39    1
    44     4    43    1
    45   101   102    1
    46   101    99   ar
    47    42    39    1
    48    83    82    1
    49    98    99   ar
    50    98     3    1
    51    81    80    1
    52    82    80   ar
    53    82    84   ar
    54    39    41    1
    55    39    40    1
    56    80    78   ar
    57    99   100    1
    58    85    84    1
    59    84    86   ar
    60    43    44    1
    61    43     1    1
    62    78    79    1
    63    78    77   ar
    64    86    77   ar
    65    86     3    1
    66    77     1    1
    67     3    87    1
    68     1    45    1
    69    65    64    1
    70    63    62    1
    71    64    62   ar
    72    64    55   ar
    73    62    60   ar
    74    97    96    1
    75    87    96   ar
    76    87    88   ar
    77    96    94   ar
    78     2    55    1
    79     2    54    1
    80     2    66    1
    81    47    46    1
    82    55    56   ar
    83    45    46   ar
    84    45    54   ar
    85    60    61    1
    86    60    58   ar
    87    76    75    1
    88    89    88    1
    89    88    90   ar
    90    46    48   ar
    91    56    58   ar
    92    56    57    1
    93    54    52   ar
    94    58    59    1
    95    75    66   ar
    96    75    73   ar
    97    94    95    1
    98    94    92   ar
    99    66    67   ar
   100    90    92   ar
   101    90    91    1
   102    74    73    1
   103    73    71   ar
   104    48    49    1
   105    48    50   ar
   106    92    93    1
   107    67    68    1
   108    67    69   ar
   109    52    50   ar
   110    52    53    1
   111    50    51    1
   112    71    69   ar
   113    71    72    1
   114    69    70    1
