@<TRIPOS>MOLECULE
1,2,3,4
 76 84 0 0 0
SMALL
GASTEIGER

@<TRIPOS>ATOM
      1 N           8.7581    3.0885    2.7788 N.ar    1  UNL1       -0.2465
      2 N          10.7072    1.1730    3.3824 N.2     1  UNL1       -0.2465
      3 N          11.0506    2.3544    5.8987 N.ar    1  UNL1       -0.2465
      4 N           9.2423    4.3859    5.2168 N.2     1  UNL1       -0.2465
      5 C           7.8175    4.0792    2.6608 C.ar    1  UNL1        0.0743
      6 C           6.9867    3.8505    1.5160 C.ar    1  UNL1       -0.0336
      7 H           6.1484    4.4575    1.2350 H       1  UNL1        0.0640
      8 C           7.4594    2.7380    0.9071 C.ar    1  UNL1       -0.0336
      9 H           7.0837    2.2506    0.0289 H       1  UNL1        0.0640
     10 C           8.5827    2.2921    1.6769 C.ar    1  UNL1        0.0743
     11 C           9.8459    5.7213   10.7669 C.ar    1  UNL1       -0.0612
     12 H           9.0216    5.8973   11.4427 H       1  UNL1        0.0618
     13 C           9.0350    0.7101   -2.4008 C.ar    1  UNL1       -0.0612
     14 H           9.1236    1.2883   -3.3090 H       1  UNL1        0.0618
     15 C           9.2595    1.3139   -1.1773 C.ar    1  UNL1       -0.0539
     16 H           9.5284    2.3583   -1.1240 H       1  UNL1        0.0624
     17 C           5.6323    6.5370    3.9217 C.ar    1  UNL1       -0.0539
     18 H           5.4812    5.9794    4.8349 H       1  UNL1        0.0624
     19 C           4.7366    7.5239    3.5522 C.ar    1  UNL1       -0.0612
     20 H           3.8873    7.7417    4.1833 H       1  UNL1        0.0618
     21 C          15.4921   -1.2203    6.1668 C.ar    1  UNL1       -0.0612
     22 H          16.4839   -0.9067    6.4579 H       1  UNL1        0.0618
     23 C           6.9077    6.9520    1.9320 C.ar    1  UNL1       -0.0539
     24 H           7.7599    6.7290    1.3072 H       1  UNL1        0.0624
     25 C           9.6147    5.1207    9.5426 C.ar    1  UNL1       -0.0539
     26 H           8.6146    4.8226    9.2627 H       1  UNL1        0.0624
     27 C          11.7943    2.2844    8.0795 C.ar    1  UNL1       -0.0336
     28 H          11.8987    2.5669    9.1089 H       1  UNL1        0.0640
     29 C          12.1216   -0.5455    2.7891 C.2     1  UNL1       -0.0336
     30 H          12.9202   -1.2563    2.8714 H       1  UNL1        0.0640
     31 C          13.9053   -2.9648    5.7436 C.ar    1  UNL1       -0.0612
     32 H          13.6540   -4.0149    5.7093 H       1  UNL1        0.0618
     33 C          11.8620    1.2662    6.0894 C.ar    1  UNL1        0.0743
     34 C           9.6204    4.8876    6.4322 C.2     1  UNL1        0.0743
     35 C          15.1776   -2.5684    6.1201 C.ar    1  UNL1       -0.0617
     36 H          15.9216   -3.3079    6.3769 H       1  UNL1        0.0618
     37 C          12.3037    1.1994    7.4509 C.ar    1  UNL1       -0.0336
     38 H          12.9079    0.4148    7.8626 H       1  UNL1        0.0640
     39 C          10.6685    4.8805    8.6662 C.ar    1  UNL1       -0.0138
     40 C           9.1560    0.5790    0.0003 C.ar    1  UNL1       -0.0138
     41 C           8.5870   -1.3685   -1.2969 C.ar    1  UNL1       -0.0612
     42 H           8.3196   -2.4143   -1.3408 H       1  UNL1        0.0618
     43 C          14.5392   -0.2721    5.8424 C.ar    1  UNL1       -0.0539
     44 H          14.7821    0.7797    5.8724 H       1  UNL1        0.0624
     45 C          11.3211   -0.3032    1.7240 C.2     1  UNL1       -0.0336
     46 H          11.3351   -0.7759    0.7615 H       1  UNL1        0.0640
     47 C           7.6824    5.1820    3.4993 C.2     1  UNL1        0.0328
     48 C           6.7264    6.2403    3.1144 C.ar    1  UNL1       -0.0138
     49 C          10.4283    0.7476    2.1101 C.2     1  UNL1        0.0743
     50 C          13.2597   -0.6626    5.4583 C.ar    1  UNL1       -0.0138
     51 C          12.9524   -2.0190    5.4110 C.ar    1  UNL1       -0.0539
     52 H          11.9572   -2.3271    5.1242 H       1  UNL1        0.0624
     53 C          12.2458    0.3533    5.1107 C.2     1  UNL1        0.0328
     54 C          11.7149    0.3566    3.8239 C.2     1  UNL1        0.0743
     55 C           9.3966    1.2252    1.3061 C.2     1  UNL1        0.0328
     56 C           8.6966   -0.6315   -2.4643 C.ar    1  UNL1       -0.0617
     57 H           8.5182   -1.1012   -3.4202 H       1  UNL1        0.0618
     58 C           8.2916    6.4564    5.5537 C.2     1  UNL1       -0.0336
     59 H           7.7213    7.3404    5.3457 H       1  UNL1        0.0640
     60 C           9.0471    6.1833    6.6434 C.2     1  UNL1       -0.0336
     61 H           9.2196    6.7990    7.5043 H       1  UNL1        0.0640
     62 C           8.3981    5.3230    4.6841 C.2     1  UNL1        0.0743
     63 C          11.9561    5.2581    9.0360 C.ar    1  UNL1       -0.0539
     64 H          12.7737    5.0830    8.3522 H       1  UNL1        0.0624
     65 C           6.0144    7.9435    1.5693 C.ar    1  UNL1       -0.0612
     66 H           6.1674    8.4939    0.6525 H       1  UNL1        0.0618
     67 C          11.0428    3.0134    7.1012 C.ar    1  UNL1        0.0743
     68 C           4.9262    8.2310    2.3765 C.ar    1  UNL1       -0.0617
     69 H           4.2275    9.0031    2.0903 H       1  UNL1        0.0618
     70 C          10.4306    4.2362    7.3586 C.2     1  UNL1        0.0328
     71 C           8.8186   -0.7693   -0.0721 C.ar    1  UNL1       -0.0539
     72 H           8.7258   -1.3419    0.8396 H       1  UNL1        0.0624
     73 C          11.1296    6.0964   11.1268 C.ar    1  UNL1       -0.0617
     74 H          11.3083    6.5675   12.0820 H       1  UNL1        0.0618
     75 C          12.1828    5.8656   10.2574 C.ar    1  UNL1       -0.0612
     76 H          13.1850    6.1599   10.5324 H       1  UNL1        0.0618
@<TRIPOS>BOND
     1    57    56    1
     2    14    13    1
     3    56    13   ar
     4    56    41   ar
     5    13    15   ar
     6    42    41    1
     7    41    71   ar
     8    15    16    1
     9    15    40   ar
    10    71    40   ar
    11    71    72    1
    12    40    55    1
    13     9     8    1
    14    66    65    1
    15    46    45    1
    16     8     6   ar
    17     8    10   ar
    18     7     6    1
    19    55    10    2
    20    55    49    1
    21    24    23    1
    22     6     5   ar
    23    65    23   ar
    24    65    68   ar
    25    10     1   ar
    26    45    49    1
    27    45    29    2
    28    23    48   ar
    29    69    68    1
    30    49     2    2
    31    68    19   ar
    32     5     1   ar
    33     5    47    2
    34    29    30    1
    35    29    54    1
    36    48    47    1
    37    48    17   ar
    38     2    54    1
    39    47    62    1
    40    19    17   ar
    41    19    20    1
    42    54    53    2
    43    17    18    1
    44    62     4    2
    45    62    58    1
    46    53    50    1
    47    53    33    1
    48    52    51    1
    49     4    34    1
    50    59    58    1
    51    51    50   ar
    52    51    31   ar
    53    50    43   ar
    54    58    60    2
    55    32    31    1
    56    31    35   ar
    57    43    44    1
    58    43    21   ar
    59     3    33   ar
    60     3    67   ar
    61    33    37   ar
    62    35    21   ar
    63    35    36    1
    64    21    22    1
    65    34    60    1
    66    34    70    2
    67    60    61    1
    68    67    70    1
    69    67    27   ar
    70    70    39    1
    71    37    38    1
    72    37    27   ar
    73    27    28    1
    74    64    63    1
    75    39    63   ar
    76    39    25   ar
    77    63    75   ar
    78    26    25    1
    79    25    11   ar
    80    75    76    1
    81    75    73   ar
    82    11    73   ar
    83    11    12    1
    84    73    74    1
