@<TRIPOS>MOLECULE
1,2,3,4
 76 84 0 0 0
SMALL
GASTEIGER

@<TRIPOS>ATOM
      1 N           0.0800    0.9414   13.5977 N.ar    1  UNL1       -0.2465
      2 N           0.9908    3.4554   12.7527 N.2     1  UNL1       -0.2465
      3 N          -1.3763    3.8264   11.3163 N.ar    1  UNL1       -0.2465
      4 N          -2.2658    1.2726   12.0810 N.2     1  UNL1       -0.2465
      5 C          -3.3677    2.6912   10.4118 C.2     1  UNL1        0.0328
      6 C          -2.5841    0.0619   12.6316 C.2     1  UNL1        0.0743
      7 C          -4.4302    2.7744    9.3874 C.ar    1  UNL1       -0.0138
      8 C           1.3334    0.8695   14.1513 C.ar    1  UNL1        0.0743
      9 C          -2.4888    3.7657   10.5179 C.ar    1  UNL1        0.0743
     10 C           2.0984    3.0928   13.4725 C.2     1  UNL1        0.0743
     11 C          -3.2774    1.5514   11.2031 C.2     1  UNL1        0.0743
     12 C           2.3063    1.8641   14.0909 C.2     1  UNL1        0.0328
     13 C          -0.5303   -0.2414   13.9289 C.ar    1  UNL1        0.0743
     14 C           0.3645    5.5390   11.6062 C.2     1  UNL1        0.0328
     15 C           1.2128    4.7570   12.3814 C.2     1  UNL1        0.0743
     16 C          -0.8471    5.0734   11.1029 C.ar    1  UNL1        0.0743
     17 C           3.6189    1.6199   14.7241 C.ar    1  UNL1       -0.0138
     18 C           3.0147    4.1906   13.5782 C.2     1  UNL1       -0.0336
     19 H           3.9407    4.1671   14.1189 H       1  UNL1        0.0640
     20 C          -4.2588    0.5056   11.2190 C.2     1  UNL1       -0.0336
     21 H          -5.1459    0.4831   10.6181 H       1  UNL1        0.0640
     22 C          -1.7940   -0.6590   13.5198 C.2     1  UNL1        0.0328
     23 C           0.7959    6.9055   11.2422 C.ar    1  UNL1       -0.0138
     24 C           1.5156   -0.3805   14.8231 C.ar    1  UNL1       -0.0336
     25 H           2.4174   -0.6920   15.3123 H       1  UNL1        0.0640
     26 C          -5.7776    2.8196    9.7282 C.ar    1  UNL1       -0.0539
     27 H          -6.0628    2.8191   10.7705 H       1  UNL1        0.0624
     28 C          -3.8443   -0.4037   12.1291 C.2     1  UNL1       -0.0336
     29 H          -4.3311   -1.3100   12.4305 H       1  UNL1        0.0640
     30 C           3.7298    1.4224   16.0968 C.ar    1  UNL1       -0.0539
     31 H           2.8420    1.4596   16.7116 H       1  UNL1        0.0624
     32 C          -2.2891   -1.9624   14.0115 C.ar    1  UNL1       -0.0138
     33 C          -2.6778    5.0019    9.8232 C.ar    1  UNL1       -0.0336
     34 H          -3.4879    5.2129    9.1530 H       1  UNL1        0.0640
     35 C           4.7691    1.5938   13.9405 C.ar    1  UNL1       -0.0539
     36 H           4.6839    1.7499   12.8749 H       1  UNL1        0.0624
     37 C           2.4595    5.2273   12.9105 C.2     1  UNL1       -0.0336
     38 H           2.8401    6.2229   12.7918 H       1  UNL1        0.0640
     39 C           0.3522   -1.0629   14.6998 C.ar    1  UNL1       -0.0336
     40 H           0.1159   -2.0423   15.0670 H       1  UNL1        0.0640
     41 C          -1.6632    5.8186   10.1945 C.ar    1  UNL1       -0.0336
     42 H          -1.4692    6.8242    9.8763 H       1  UNL1        0.0640
     43 C           4.9672    1.1984   16.6732 C.ar    1  UNL1       -0.0612
     44 H           5.0431    1.0518   17.7408 H       1  UNL1        0.0618
     45 C           1.9080    7.0933   10.4272 C.ar    1  UNL1       -0.0539
     46 H           2.4475    6.2309   10.0632 H       1  UNL1        0.0624
     47 C           0.0940    8.0165   11.6983 C.ar    1  UNL1       -0.0539
     48 H          -0.7682    7.8741   12.3339 H       1  UNL1        0.0624
     49 C          -4.0679    2.8083    8.0430 C.ar    1  UNL1       -0.0539
     50 H          -3.0210    2.7873    7.7758 H       1  UNL1        0.0624
     51 C          -2.4902   -3.0187   13.1286 C.ar    1  UNL1       -0.0539
     52 H          -2.2715   -2.8774   12.0804 H       1  UNL1        0.0624
     53 C           6.0035    1.3610   14.5188 C.ar    1  UNL1       -0.0612
     54 H           6.8895    1.3360   13.9011 H       1  UNL1        0.0618
     55 C          -2.5555   -2.1486   15.3644 C.ar    1  UNL1       -0.0539
     56 H          -2.4025   -1.3296   16.0525 H       1  UNL1        0.0624
     57 C          -6.7458    2.8854    8.7418 C.ar    1  UNL1       -0.0612
     58 H          -7.7899    2.9247    9.0167 H       1  UNL1        0.0618
     59 C          -6.3796    2.9017    7.4064 C.ar    1  UNL1       -0.0617
     60 H          -7.1373    2.9481    6.6382 H       1  UNL1        0.0618
     61 C           6.1059    1.1630   15.8859 C.ar    1  UNL1       -0.0617
     62 H           7.0707    0.9845   16.3372 H       1  UNL1        0.0618
     63 C          -5.0388    2.8651    7.0601 C.ar    1  UNL1       -0.0612
     64 H          -4.7460    2.8833    6.0206 H       1  UNL1        0.0618
     65 C           1.6091    9.4713   10.5386 C.ar    1  UNL1       -0.0617
     66 H           1.9248   10.4675   10.2660 H       1  UNL1        0.0618
     67 C          -3.2205   -4.4143   14.9401 C.ar    1  UNL1       -0.0617
     68 H          -3.5827   -5.3658   15.3007 H       1  UNL1        0.0618
     69 C           2.3091    8.3694   10.0760 C.ar    1  UNL1       -0.0612
     70 H           3.1709    8.5046    9.4389 H       1  UNL1        0.0618
     71 C          -2.9507   -4.2374   13.5931 C.ar    1  UNL1       -0.0612
     72 H          -3.0997   -5.0527   12.9003 H       1  UNL1        0.0618
     73 C          -3.0223   -3.3669   15.8241 C.ar    1  UNL1       -0.0612
     74 H          -3.2315   -3.4996   16.8757 H       1  UNL1        0.0618
     75 C           0.5020    9.2918   11.3511 C.ar    1  UNL1       -0.0612
     76 H          -0.0464   10.1486   11.7149 H       1  UNL1        0.0618
@<TRIPOS>BOND
     1    64    63    1
     2    60    59    1
     3    63    59   ar
     4    63    49   ar
     5    59    57   ar
     6    50    49    1
     7    49     7   ar
     8    57    58    1
     9    57    26   ar
    10    34    33    1
    11     7    26   ar
    12     7     5    1
    13    70    69    1
    14    26    27    1
    15    33    41   ar
    16    33     9   ar
    17    42    41    1
    18    46    45    1
    19    69    45   ar
    20    69    65   ar
    21    41    16   ar
    22    66    65    1
    23     5     9    2
    24     5    11    1
    25    45    23   ar
    26     9     3   ar
    27    65    75   ar
    28    21    20    1
    29    16     3   ar
    30    16    14    2
    31    11    20    1
    32    11     4    2
    33    20    28    2
    34    23    14    1
    35    23    47   ar
    36    75    47   ar
    37    75    76    1
    38    14    15    1
    39    47    48    1
    40    52    51    1
    41     4     6    1
    42    28    29    1
    43    28     6    1
    44    15     2    2
    45    15    37    1
    46     6    22    2
    47     2    10    1
    48    38    37    1
    49    36    35    1
    50    72    71    1
    51    37    18    2
    52    51    71   ar
    53    51    32   ar
    54    10    18    1
    55    10    12    2
    56    22    13    1
    57    22    32    1
    58    18    19    1
    59    71    67   ar
    60     1    13   ar
    61     1     8   ar
    62    54    53    1
    63    13    39   ar
    64    35    53   ar
    65    35    17   ar
    66    32    55   ar
    67    12     8    1
    68    12    17    1
    69     8    24   ar
    70    53    61   ar
    71    39    24   ar
    72    39    40    1
    73    17    30   ar
    74    24    25    1
    75    67    68    1
    76    67    73   ar
    77    55    73   ar
    78    55    56    1
    79    73    74    1
    80    61    62    1
    81    61    43   ar
    82    30    43   ar
    83    30    31    1
    84    43    44    1
