@<TRIPOS>MOLECULE
1,2,3,4
 54 54 0 0 0
SMALL
GASTEIGER

@<TRIPOS>ATOM
      1 N           3.8500   -1.5919   11.7953 N.3     1  UNL1        0.0000
      2 N           0.9558    0.3352   11.3889 N.3     1  UNL1        0.0000
      3 N           3.3506    2.5229   12.0194 N.pl3   1  UNL1        0.0000
      4 N           2.8402    0.3627   13.5783 N.3     1  UNL1        0.0000
      5 SI          3.3303   -3.0879   11.1628 Si      1  UNL1        0.0000
      6 SI         -0.2802    0.4045   10.2189 Si      1  UNL1        0.0000
      7 C           4.3259   -1.5476   13.1617 C.3     1  UNL1        0.0000
      8 C           3.2454   -0.9531   14.0855 C.3     1  UNL1        0.0000
      9 C           0.5493   -0.0542   12.7292 C.3     1  UNL1        0.0000
     10 C           1.4143    0.6318   13.8009 C.3     1  UNL1        0.0000
     11 C           3.6585    1.4229   14.1531 C.3     1  UNL1        0.0000
     12 C           3.5781    2.6788   13.3252 C.3     1  UNL1        0.0000
     13 C           3.7479    3.9315   13.9070 C.2     1  UNL1        0.0000
     14 C           3.6745    5.0603   13.1110 C.2     1  UNL1        0.0000
     15 C           3.4187    4.8980   11.7576 C.2     1  UNL1        0.0000
     16 C           3.2652    3.6142   11.2631 C.2     1  UNL1        0.0000
     17 C           2.8511   -2.7137    9.3530 C.3     1  UNL1        0.0000
     18 C           4.6882   -4.4435   11.2029 C.3     1  UNL1        0.0000
     19 C           1.7945   -3.9036   11.9999 C.3     1  UNL1        0.0000
     20 C           0.5202    1.1103    8.6371 C.3     1  UNL1        0.0000
     21 C          -1.1081   -1.2795    9.7903 C.3     1  UNL1        0.0000
     22 C          -1.7322    1.5640   10.7163 C.3     1  UNL1        0.0000
     23 H           4.5895   -2.5419   13.5473 H       1  UNL1        0.0000
     24 H           5.2384   -0.9286   13.2255 H       1  UNL1        0.0000
     25 H           3.5942   -0.8879   15.1286 H       1  UNL1        0.0000
     26 H           2.3843   -1.6225   14.0451 H       1  UNL1        0.0000
     27 H           0.6116   -1.1488   12.8599 H       1  UNL1        0.0000
     28 H          -0.4934    0.2298   12.9349 H       1  UNL1        0.0000
     29 H           1.1052    0.3110   14.8096 H       1  UNL1        0.0000
     30 H           1.2503    1.7107   13.7138 H       1  UNL1        0.0000
     31 H           3.3666    1.6434   15.1957 H       1  UNL1        0.0000
     32 H           4.7042    1.0920   14.1638 H       1  UNL1        0.0000
     33 H           3.9348    4.0137   14.9670 H       1  UNL1        0.0000
     34 H           3.8067    6.0436   13.5368 H       1  UNL1        0.0000
     35 H           3.3422    5.7490   11.1003 H       1  UNL1        0.0000
     36 H           3.0649    3.4438   10.2137 H       1  UNL1        0.0000
     37 H           2.2560   -3.5171    8.9335 H       1  UNL1        0.0000
     38 H           3.7287   -2.5915    8.7275 H       1  UNL1        0.0000
     39 H           2.2602   -1.7929    9.3043 H       1  UNL1        0.0000
     40 H           4.3701   -5.3428   10.6861 H       1  UNL1        0.0000
     41 H           4.9307   -4.7236   12.2236 H       1  UNL1        0.0000
     42 H           5.6035   -4.0984   10.7333 H       1  UNL1        0.0000
     43 H           1.5589   -4.8661   11.5559 H       1  UNL1        0.0000
     44 H           1.9614   -4.0716   13.0611 H       1  UNL1        0.0000
     45 H           0.9145   -3.2735   11.8969 H       1  UNL1        0.0000
     46 H          -0.1437    0.9920    7.7886 H       1  UNL1        0.0000
     47 H           0.7352    2.1688    8.7380 H       1  UNL1        0.0000
     48 H           1.4515    0.5951    8.4059 H       1  UNL1        0.0000
     49 H          -1.8405   -1.1861    8.9940 H       1  UNL1        0.0000
     50 H          -1.6208   -1.6896   10.6562 H       1  UNL1        0.0000
     51 H          -0.3693   -2.0109    9.4745 H       1  UNL1        0.0000
     52 H          -2.4024    1.7432    9.8818 H       1  UNL1        0.0000
     53 H          -2.3241    1.1322   11.5179 H       1  UNL1        0.0000
     54 H          -1.3687    2.5282   11.0601 H       1  UNL1        0.0000
@<TRIPOS>BOND
     1    46    20    1
     2    48    20    1
     3    20    47    1
     4    20     6    1
     5    38    17    1
     6    37    17    1
     7    49    21    1
     8    39    17    1
     9    17     5    1
    10    51    21    1
    11    21     6    1
    12    21    50    1
    13    52    22    1
    14    36    16    1
    15     6    22    1
    16     6     2    1
    17    40    18    1
    18    22    54    1
    19    22    53    1
    20    42    18    1
    21    35    15    1
    22     5    18    1
    23     5     1    1
    24     5    19    1
    25    18    41    1
    26    16    15    2
    27    16     3    1
    28     2     9    1
    29    43    19    1
    30    15    14    1
    31     1     7    1
    32    45    19    1
    33    19    44    1
    34     3    12    1
    35     9    27    1
    36     9    28    1
    37     9    10    1
    38    14    34    1
    39    14    13    2
    40     7    24    1
    41     7    23    1
    42     7     8    1
    43    12    13    1
    44    12    11    1
    45     4    10    1
    46     4     8    1
    47     4    11    1
    48    30    10    1
    49    10    29    1
    50    13    33    1
    51    26     8    1
    52     8    25    1
    53    11    32    1
    54    11    31    1
