@<TRIPOS>MOLECULE
1,2,3,4
 54 54 0 0 0
SMALL
GASTEIGER

@<TRIPOS>ATOM
      1 N           4.9441    0.3013    4.9297 N.3     1  UNL1        0.0000
      2 N           6.3668    3.7165    6.4942 N.3     1  UNL1        0.0000
      3 N           4.8527    4.1021    3.6028 N.pl3   1  UNL1        0.0000
      4 N           3.7355    2.8083    5.8043 N.3     1  UNL1        0.0000
      5 SI          5.5237   -1.2907    4.6989 Si      1  UNL1        0.0000
      6 SI          7.1409    5.2299    6.4172 Si      1  UNL1        0.0000
      7 C           3.5345    0.3958    5.2704 C.3     1  UNL1        0.0000
      8 C           3.2404    1.5171    6.2765 C.3     1  UNL1        0.0000
      9 C           5.3456    3.5551    7.5148 C.3     1  UNL1        0.0000
     10 C           3.9440    3.7477    6.9087 C.3     1  UNL1        0.0000
     11 C           2.8668    3.3833    4.7841 C.3     1  UNL1        0.0000
     12 C           3.6065    4.4112    3.9700 C.3     1  UNL1        0.0000
     13 C           3.0033    5.6108    3.6066 C.2     1  UNL1        0.0000
     14 C           3.7090    6.5156    2.8328 C.2     1  UNL1        0.0000
     15 C           4.9996    6.1880    2.4470 C.2     1  UNL1        0.0000
     16 C           5.5257    4.9746    2.8578 C.2     1  UNL1        0.0000
     17 C           7.1925   -1.2374    3.7886 C.3     1  UNL1        0.0000
     18 C           5.7743   -2.2672    6.3435 C.3     1  UNL1        0.0000
     19 C           4.3334   -2.3754    3.6456 C.3     1  UNL1        0.0000
     20 C           8.1883    5.6243    7.9828 C.3     1  UNL1        0.0000
     21 C           8.2876    5.2695    4.8905 C.3     1  UNL1        0.0000
     22 C           5.9685    6.7624    6.2614 C.3     1  UNL1        0.0000
     23 H           3.1611   -0.5325    5.7225 H       1  UNL1        0.0000
     24 H           2.9313    0.5572    4.3579 H       1  UNL1        0.0000
     25 H           3.7632    1.2755    7.2047 H       1  UNL1        0.0000
     26 H           2.1581    1.5614    6.4868 H       1  UNL1        0.0000
     27 H           5.4544    4.2840    8.3285 H       1  UNL1        0.0000
     28 H           5.4122    2.5520    7.9649 H       1  UNL1        0.0000
     29 H           3.1603    3.6396    7.6748 H       1  UNL1        0.0000
     30 H           3.9068    4.7641    6.5111 H       1  UNL1        0.0000
     31 H           1.9592    3.8286    5.2248 H       1  UNL1        0.0000
     32 H           2.5560    2.5816    4.1055 H       1  UNL1        0.0000
     33 H           1.9956    5.8288    3.9272 H       1  UNL1        0.0000
     34 H           3.2629    7.4545    2.5406 H       1  UNL1        0.0000
     35 H           5.5866    6.8610    1.8426 H       1  UNL1        0.0000
     36 H           6.5244    4.6744    2.5731 H       1  UNL1        0.0000
     37 H           7.4984   -2.2341    3.4875 H       1  UNL1        0.0000
     38 H           7.9636   -0.8313    4.4330 H       1  UNL1        0.0000
     39 H           7.1350   -0.6189    2.8986 H       1  UNL1        0.0000
     40 H           6.1022   -3.2857    6.1605 H       1  UNL1        0.0000
     41 H           6.5203   -1.7913    6.9744 H       1  UNL1        0.0000
     42 H           4.8510   -2.3217    6.9138 H       1  UNL1        0.0000
     43 H           4.7383   -3.3672    3.4715 H       1  UNL1        0.0000
     44 H           3.3770   -2.4989    4.1444 H       1  UNL1        0.0000
     45 H           4.1399   -1.9244    2.6770 H       1  UNL1        0.0000
     46 H           8.7276    6.5612    7.8830 H       1  UNL1        0.0000
     47 H           8.9160    4.8423    8.1774 H       1  UNL1        0.0000
     48 H           7.5587    5.7066    8.8638 H       1  UNL1        0.0000
     49 H           7.9970    6.0510    4.1960 H       1  UNL1        0.0000
     50 H           9.3128    5.4643    5.1840 H       1  UNL1        0.0000
     51 H           8.2644    4.3165    4.3687 H       1  UNL1        0.0000
     52 H           6.5269    7.6909    6.1946 H       1  UNL1        0.0000
     53 H           5.3211    6.8399    7.1304 H       1  UNL1        0.0000
     54 H           5.3313    6.7022    5.3822 H       1  UNL1        0.0000
@<TRIPOS>BOND
     1    35    15    1
     2    15    14    1
     3    15    16    2
     4    34    14    1
     5    36    16    1
     6    45    19    1
     7    14    13    2
     8    16     3    1
     9    39    17    1
    10    43    19    1
    11    37    17    1
    12     3    12    1
    13    13    33    1
    14    13    12    1
    15    19    44    1
    16    19     5    1
    17    17    38    1
    18    17     5    1
    19    12    11    1
    20    32    11    1
    21    49    21    1
    22    24     7    1
    23    51    21    1
    24     5     1    1
    25     5    18    1
    26    11    31    1
    27    11     4    1
    28    21    50    1
    29    21     6    1
    30     1     7    1
    31     7    23    1
    32     7     8    1
    33    54    22    1
    34     4     8    1
    35     4    10    1
    36    40    18    1
    37    52    22    1
    38    22     6    1
    39    22    53    1
    40     8    26    1
    41     8    25    1
    42    18    42    1
    43    18    41    1
    44     6     2    1
    45     6    20    1
    46     2     9    1
    47    30    10    1
    48    10     9    1
    49    10    29    1
    50     9    28    1
    51     9    27    1
    52    46    20    1
    53    20    47    1
    54    20    48    1
