@<TRIPOS>MOLECULE
1,2,3,4
 54 54 0 0 0
SMALL
GASTEIGER

@<TRIPOS>ATOM
      1 N           5.4286   17.6262    4.7111 N.3     1  UNL1        0.0000
      2 N           5.2438   16.0853    8.1480 N.3     1  UNL1        0.0000
      3 N           8.4395   16.7538    7.4241 N.pl3   1  UNL1        0.0000
      4 N           6.7157   15.2633    5.7744 N.3     1  UNL1        0.0000
      5 SI          3.8230   18.0189    4.2813 Si      1  UNL1        0.0000
      6 SI          5.5814   15.7676    9.7929 Si      1  UNL1        0.0000
      7 C           6.1556   16.7109    3.8535 C.3     1  UNL1        0.0000
      8 C           6.1328   15.2826    4.4304 C.3     1  UNL1        0.0000
      9 C           4.8385   14.9384    7.3493 C.3     1  UNL1        0.0000
     10 C           6.0538   14.2952    6.6545 C.3     1  UNL1        0.0000
     11 C           8.1572   15.0436    5.7344 C.3     1  UNL1        0.0000
     12 C           8.8308   15.5561    6.9831 C.3     1  UNL1        0.0000
     13 C           9.8424   14.8342    7.6072 C.2     1  UNL1        0.0000
     14 C          10.4774   15.3792    8.7102 C.2     1  UNL1        0.0000
     15 C          10.0935   16.6400    9.1410 C.2     1  UNL1        0.0000
     16 C           9.0710   17.2874    8.4674 C.2     1  UNL1        0.0000
     17 C           2.6286   16.5332    3.9716 C.3     1  UNL1        0.0000
     18 C           3.6917   19.0758    2.6829 C.3     1  UNL1        0.0000
     19 C           3.1569   19.0004    5.7768 C.3     1  UNL1        0.0000
     20 C           6.7425   14.2647   10.1524 C.3     1  UNL1        0.0000
     21 C           3.9933   15.3866   10.8055 C.3     1  UNL1        0.0000
     22 C           6.4541   17.2879   10.5509 C.3     1  UNL1        0.0000
     23 H           7.2017   17.0410    3.7395 H       1  UNL1        0.0000
     24 H           5.7243   16.6669    2.8454 H       1  UNL1        0.0000
     25 H           6.6499   14.5762    3.7622 H       1  UNL1        0.0000
     26 H           5.0857   14.9857    4.5048 H       1  UNL1        0.0000
     27 H           4.3629   14.1624    7.9630 H       1  UNL1        0.0000
     28 H           4.1086   15.2484    6.5861 H       1  UNL1        0.0000
     29 H           6.7536   14.0066    7.4406 H       1  UNL1        0.0000
     30 H           5.7569   13.3922    6.0997 H       1  UNL1        0.0000
     31 H           8.5678   15.6078    4.8885 H       1  UNL1        0.0000
     32 H           8.4035   13.9794    5.5829 H       1  UNL1        0.0000
     33 H          10.1266   13.8626    7.2320 H       1  UNL1        0.0000
     34 H          11.2601   14.8347    9.2170 H       1  UNL1        0.0000
     35 H          10.5751   17.1097    9.9835 H       1  UNL1        0.0000
     36 H           8.7479   18.2817    8.7530 H       1  UNL1        0.0000
     37 H           1.6344   16.8702    3.6950 H       1  UNL1        0.0000
     38 H           2.5239   15.9062    4.8536 H       1  UNL1        0.0000
     39 H           2.9919   15.9056    3.1622 H       1  UNL1        0.0000
     40 H           2.6581   19.2783    2.4217 H       1  UNL1        0.0000
     41 H           4.1967   20.0297    2.7933 H       1  UNL1        0.0000
     42 H           4.1457   18.5634    1.8400 H       1  UNL1        0.0000
     43 H           2.2218   19.4960    5.5377 H       1  UNL1        0.0000
     44 H           3.8702   19.7656    6.0786 H       1  UNL1        0.0000
     45 H           2.9689   18.3387    6.6231 H       1  UNL1        0.0000
     46 H           6.8953   14.1328   11.2191 H       1  UNL1        0.0000
     47 H           7.7232   14.3884    9.6981 H       1  UNL1        0.0000
     48 H           6.3158   13.3403    9.7736 H       1  UNL1        0.0000
     49 H           4.2161   15.2271   11.8556 H       1  UNL1        0.0000
     50 H           3.2834   16.2052   10.7391 H       1  UNL1        0.0000
     51 H           3.4946   14.4943   10.4393 H       1  UNL1        0.0000
     52 H           7.4086   17.0145   10.9884 H       1  UNL1        0.0000
     53 H           5.8504   17.7209   11.3395 H       1  UNL1        0.0000
     54 H           6.6268   18.0582    9.8039 H       1  UNL1        0.0000
@<TRIPOS>BOND
     1    42    18    1
     2    40    18    1
     3    18    41    1
     4    18     5    1
     5    24     7    1
     6    39    17    1
     7    37    17    1
     8    23     7    1
     9    25     8    1
    10     7     8    1
    11     7     1    1
    12    17     5    1
    13    17    38    1
    14     5     1    1
    15     5    19    1
    16     8    26    1
    17     8     4    1
    18    31    11    1
    19    43    19    1
    20    32    11    1
    21    11     4    1
    22    11    12    1
    23     4    10    1
    24    19    44    1
    25    19    45    1
    26    30    10    1
    27    28     9    1
    28    10     9    1
    29    10    29    1
    30    12     3    1
    31    12    13    1
    32    33    13    1
    33     9    27    1
    34     9     2    1
    35     3    16    1
    36    13    14    2
    37     2     6    1
    38    16    36    1
    39    16    15    2
    40    14    15    1
    41    14    34    1
    42    15    35    1
    43    47    20    1
    44    48    20    1
    45     6    20    1
    46     6    22    1
    47     6    21    1
    48    54    22    1
    49    20    46    1
    50    51    21    1
    51    22    52    1
    52    22    53    1
    53    50    21    1
    54    21    49    1
