@<TRIPOS>MOLECULE
4,5,6,7
 88 87 0 0 0
SMALL
GASTEIGER

@<TRIPOS>ATOM
      1 SI         13.5839    6.7255   10.3993 Si      1  UNL1        0.0000
      2 SI         13.8012   12.3810   10.7427 Si      1  UNL1        0.0000
      3 SI         12.5353    9.8919    5.8836 Si      1  UNL1        0.0000
      4 N          14.1259    8.3355   10.3902 N.3     1  UNL1        0.0000
      5 N          14.0117   11.6168    9.2422 N.3     1  UNL1        0.0000
      6 N          13.3593    8.9930    7.0666 N.3     1  UNL1        0.0000
      7 N          15.7708    9.5741    8.4241 N.3     1  UNL1        0.0000
      8 C          12.8742    6.2485   12.1586 C.3     1  UNL1        0.0000
      9 C          13.9289    6.5100   13.2352 C.3     1  UNL1        0.0000
     10 H          14.8110    5.8926   13.0723 H       1  UNL1        0.0000
     11 H          13.5354    6.2862   14.2288 H       1  UNL1        0.0000
     12 H          14.2306    7.5545   13.2148 H       1  UNL1        0.0000
     13 C          12.4328    4.7881   12.2536 C.3     1  UNL1        0.0000
     14 H          11.7047    4.5562   11.4804 H       1  UNL1        0.0000
     15 H          11.9728    4.5891   13.2235 H       1  UNL1        0.0000
     16 H          13.2812    4.1170   12.1386 H       1  UNL1        0.0000
     17 C          11.6697    7.1446   12.4399 C.3     1  UNL1        0.0000
     18 H          11.9390    8.1924   12.3073 H       1  UNL1        0.0000
     19 H          11.3007    7.0008   13.4582 H       1  UNL1        0.0000
     20 H          10.8601    6.9232   11.7482 H       1  UNL1        0.0000
     21 C          14.9493    5.3884   10.0409 C.3     1  UNL1        0.0000
     22 H          15.3204    5.4599    9.0221 H       1  UNL1        0.0000
     23 H          14.5785    4.3784   10.1757 H       1  UNL1        0.0000
     24 H          15.7977    5.5169   10.7062 H       1  UNL1        0.0000
     25 C          12.2444    6.4967    9.0526 C.3     1  UNL1        0.0000
     26 H          11.7729    7.4706    8.8610 H       1  UNL1        0.0000
     27 H          11.4673    5.8038    9.3608 H       1  UNL1        0.0000
     28 H          12.6526    6.1278    8.1141 H       1  UNL1        0.0000
     29 C          15.4978    8.6754   10.6781 C.3     1  UNL1        0.0000
     30 H          15.9617    7.9842   11.4011 H       1  UNL1        0.0000
     31 H          15.5512    9.6897   11.1078 H       1  UNL1        0.0000
     32 C          16.3447    8.6513    9.3906 C.3     1  UNL1        0.0000
     33 H          17.4013    8.8919    9.6086 H       1  UNL1        0.0000
     34 H          16.3008    7.6374    8.9882 H       1  UNL1        0.0000
     35 C          12.6568   13.9550   10.5761 C.3     1  UNL1        0.0000
     36 C          12.7190   14.8816   11.7918 C.3     1  UNL1        0.0000
     37 H          12.4767   14.3372   12.7015 H       1  UNL1        0.0000
     38 H          12.0044   15.6999   11.6855 H       1  UNL1        0.0000
     39 H          13.7125   15.3115   11.9031 H       1  UNL1        0.0000
     40 C          13.0605   14.7542    9.3358 C.3     1  UNL1        0.0000
     41 H          14.0874   15.1096    9.4192 H       1  UNL1        0.0000
     42 H          12.4103   15.6211    9.2027 H       1  UNL1        0.0000
     43 H          12.9832   14.1280    8.4503 H       1  UNL1        0.0000
     44 C          11.2163   13.4752   10.3974 C.3     1  UNL1        0.0000
     45 H          11.1538   12.6871    9.6471 H       1  UNL1        0.0000
     46 H          10.5645   14.2990   10.0994 H       1  UNL1        0.0000
     47 H          10.8350   13.0598   11.3268 H       1  UNL1        0.0000
     48 C          15.4469   12.9985   11.5697 C.3     1  UNL1        0.0000
     49 H          16.1360   12.1770   11.7451 H       1  UNL1        0.0000
     50 H          15.2701   13.4814   12.5239 H       1  UNL1        0.0000
     51 H          15.9510   13.7145   10.9280 H       1  UNL1        0.0000
     52 C          12.9871   11.1305   11.9372 C.3     1  UNL1        0.0000
     53 H          12.0968   10.7372   11.4373 H       1  UNL1        0.0000
     54 H          12.6772   11.5832   12.8756 H       1  UNL1        0.0000
     55 H          13.6380   10.2879   12.1707 H       1  UNL1        0.0000
     56 C          15.0954   11.9198    8.3430 C.3     1  UNL1        0.0000
     57 H          15.4826   12.9431    8.4759 H       1  UNL1        0.0000
     58 H          14.7569   11.8273    7.2959 H       1  UNL1        0.0000
     59 C          16.2620   10.9365    8.5649 C.3     1  UNL1        0.0000
     60 H          17.0955   11.1454    7.8701 H       1  UNL1        0.0000
     61 H          16.6226   11.0830    9.5858 H       1  UNL1        0.0000
     62 C          11.1542    8.8131    5.0138 C.3     1  UNL1        0.0000
     63 C          11.6693    7.3822    4.8484 C.3     1  UNL1        0.0000
     64 H          12.5499    7.3573    4.2067 H       1  UNL1        0.0000
     65 H          10.9055    6.7418    4.4029 H       1  UNL1        0.0000
     66 H          11.9378    6.9769    5.8209 H       1  UNL1        0.0000
     67 C          10.7423    9.3448    3.6395 C.3     1  UNL1        0.0000
     68 H          10.4116   10.3782    3.7131 H       1  UNL1        0.0000
     69 H           9.9207    8.7527    3.2320 H       1  UNL1        0.0000
     70 H          11.5736    9.2984    2.9389 H       1  UNL1        0.0000
     71 C           9.9190    8.7782    5.9129 C.3     1  UNL1        0.0000
     72 H          10.1934    8.5738    6.9471 H       1  UNL1        0.0000
     73 H           9.2135    8.0154    5.5766 H       1  UNL1        0.0000
     74 H           9.4106    9.7392    5.8988 H       1  UNL1        0.0000
     75 C          13.6792   10.5373    4.4480 C.3     1  UNL1        0.0000
     76 H          14.4419   11.2150    4.8220 H       1  UNL1        0.0000
     77 H          13.1220   11.0694    3.6855 H       1  UNL1        0.0000
     78 H          14.1877    9.7093    3.9636 H       1  UNL1        0.0000
     79 C          11.7812   11.4459    6.7032 C.3     1  UNL1        0.0000
     80 H          10.8753   11.1602    7.2305 H       1  UNL1        0.0000
     81 H          11.5290   12.2354    5.9992 H       1  UNL1        0.0000
     82 H          12.4610   11.8471    7.4606 H       1  UNL1        0.0000
     83 C          14.5464    8.2265    6.7938 C.3     1  UNL1        0.0000
     84 H          14.5900    7.8692    5.7519 H       1  UNL1        0.0000
     85 H          14.5797    7.3418    7.4514 H       1  UNL1        0.0000
     86 C          15.8052    9.0796    7.0561 C.3     1  UNL1        0.0000
     87 H          16.7261    8.5028    6.8529 H       1  UNL1        0.0000
     88 H          15.7728    9.9283    6.3693 H       1  UNL1        0.0000
@<TRIPOS>BOND
     1    70    67    1
     2    69    67    1
     3    67    68    1
     4    67    62    1
     5    77    75    1
     6    78    75    1
     7    64    63    1
     8    65    63    1
     9    75    76    1
    10    75     3    1
    11    63    62    1
    12    63    66    1
    13    62     3    1
    14    62    71    1
    15    73    71    1
    16    84    83    1
    17     3    79    1
    18     3     6    1
    19    74    71    1
    20    71    72    1
    21    81    79    1
    22    88    86    1
    23    79    80    1
    24    79    82    1
    25    83    86    1
    26    83     6    1
    27    83    85    1
    28    87    86    1
    29    86     7    1
    30    58    56    1
    31    60    59    1
    32    28    25    1
    33    56    57    1
    34    56    59    1
    35    56     5    1
    36     7    59    1
    37     7    32    1
    38    43    40    1
    39    59    61    1
    40    26    25    1
    41    34    32    1
    42    22    21    1
    43    25    27    1
    44    25     1    1
    45    42    40    1
    46     5     2    1
    47    40    41    1
    48    40    35    1
    49    32    33    1
    50    32    29    1
    51    45    44    1
    52    21    23    1
    53    21     1    1
    54    21    24    1
    55    46    44    1
    56     4     1    1
    57     4    29    1
    58    44    35    1
    59    44    47    1
    60     1     8    1
    61    35     2    1
    62    35    36    1
    63    29    31    1
    64    29    30    1
    65     2    48    1
    66     2    52    1
    67    51    48    1
    68    53    52    1
    69    14    13    1
    70    48    49    1
    71    48    50    1
    72    38    36    1
    73    20    17    1
    74    36    39    1
    75    36    37    1
    76    52    55    1
    77    52    54    1
    78    16    13    1
    79     8    13    1
    80     8    17    1
    81     8     9    1
    82    13    15    1
    83    18    17    1
    84    17    19    1
    85    10     9    1
    86    12     9    1
    87     9    11    1
