@<TRIPOS>MOLECULE
2,3,4,5
 41 40 0 0 0
SMALL
GASTEIGER

@<TRIPOS>ATOM
      1 SI          4.0774   -0.0771   -2.2088 Si      1  UNL1        0.0000
      2 N           2.3889    3.1905    0.0314 N.3     1  UNL1        0.0000
      3 N           3.1523    1.2451   -1.6102 N.3     1  UNL1        0.0000
      4 N           4.9289   -0.3516   -0.7384 N.3     1  UNL1        0.0000
      5 N           5.5268   -0.1700    1.8466 N.3     1  UNL1        0.0000
      6 C           2.4370    4.2932    0.9828 C.3     1  UNL1        0.0000
      7 H           1.8065    5.1377    0.6566 H       1  UNL1        0.0000
      8 H           3.4628    4.6431    1.0842 H       1  UNL1        0.0000
      9 H           2.0830    3.9532    1.9564 H       1  UNL1        0.0000
     10 C           1.0052    2.7459   -0.1266 C.3     1  UNL1        0.0000
     11 H           0.5808    2.5184    0.8507 H       1  UNL1        0.0000
     12 H           0.9962    1.8435   -0.7397 H       1  UNL1        0.0000
     13 H           0.3881    3.5263   -0.6014 H       1  UNL1        0.0000
     14 C           2.9116    3.6419   -1.2630 C.3     1  UNL1        0.0000
     15 H           3.9412    3.9756   -1.1003 H       1  UNL1        0.0000
     16 H           2.3134    4.4887   -1.6493 H       1  UNL1        0.0000
     17 C           2.9115    2.4824   -2.2891 C.3     1  UNL1        0.0000
     18 H           1.9351    2.4704   -2.8150 H       1  UNL1        0.0000
     19 H           3.6698    2.7120   -3.0611 H       1  UNL1        0.0000
     20 C           2.9952   -1.5543   -2.8208 C.3     1  UNL1        0.0000
     21 H           2.2475   -1.8255   -2.0803 H       1  UNL1        0.0000
     22 H           3.6151   -2.4276   -2.9980 H       1  UNL1        0.0000
     23 H           2.4765   -1.3283   -3.7463 H       1  UNL1        0.0000
     24 C           5.2317    0.3325   -3.7011 C.3     1  UNL1        0.0000
     25 H           4.6458    0.6758   -4.5480 H       1  UNL1        0.0000
     26 H           5.8037   -0.5299   -4.0270 H       1  UNL1        0.0000
     27 H           5.9364    1.1196   -3.4467 H       1  UNL1        0.0000
     28 C           5.1805   -1.6249   -0.1341 C.3     1  UNL1        0.0000
     29 H           6.1910   -2.0015   -0.3927 H       1  UNL1        0.0000
     30 H           4.4714   -2.4098   -0.4575 H       1  UNL1        0.0000
     31 C           5.0757   -1.4944    1.4050 C.3     1  UNL1        0.0000
     32 H           4.0271   -1.5973    1.7014 H       1  UNL1        0.0000
     33 H           5.6698   -2.2899    1.8934 H       1  UNL1        0.0000
     34 C           6.9314    0.0150    1.4863 C.3     1  UNL1        0.0000
     35 H           7.5529   -0.8110    1.8694 H       1  UNL1        0.0000
     36 H           7.2981    0.9480    1.9128 H       1  UNL1        0.0000
     37 H           7.0099    0.0632    0.3992 H       1  UNL1        0.0000
     38 C           5.3811   -0.0678    3.2929 C.3     1  UNL1        0.0000
     39 H           4.3403   -0.2310    3.5670 H       1  UNL1        0.0000
     40 H           5.6800    0.9279    3.6221 H       1  UNL1        0.0000
     41 H           6.0051   -0.8116    3.8167 H       1  UNL1        0.0000
@<TRIPOS>BOND
     1    25    24    1
     2    26    24    1
     3    23    20    1
     4    24    27    1
     5    24     1    1
     6    19    17    1
     7    22    20    1
     8    20     1    1
     9    20    21    1
    10    18    17    1
    11    17     3    1
    12    17    14    1
    13     1     3    1
    14     1     4    1
    15    16    14    1
    16    14    15    1
    17    14     2    1
    18    12    10    1
    19     4    28    1
    20    13    10    1
    21    30    28    1
    22    29    28    1
    23    28    31    1
    24    10     2    1
    25    10    11    1
    26     2     6    1
    27    37    34    1
    28     7     6    1
    29     6     8    1
    30     6     9    1
    31    31    32    1
    32    31     5    1
    33    31    33    1
    34    34     5    1
    35    34    35    1
    36    34    36    1
    37     5    38    1
    38    38    39    1
    39    38    40    1
    40    38    41    1
