@<TRIPOS>MOLECULE
2,3,4,5
 47 46 0 0 0
SMALL
GASTEIGER

@<TRIPOS>ATOM
      1 SI          3.0254    1.7189    1.0491 Si      1  UNL1        0.0000
      2 N           3.2622    3.0810    0.0097 N.3     1  UNL1        0.0000
      3 N           2.3717    2.7247    2.2951 N.3     1  UNL1        0.0000
      4 N           0.2682    4.4990    0.9567 N.3     1  UNL1        0.0000
      5 N           4.6779    5.2124    1.6881 N.3     1  UNL1        0.0000
      6 C           4.3972    3.2583   -0.8449 C.3     1  UNL1        0.0000
      7 H           4.6125    2.3394   -1.4147 H       1  UNL1        0.0000
      8 H           4.1898    4.0565   -1.5764 H       1  UNL1        0.0000
      9 C           5.6750    3.6292   -0.0617 C.3     1  UNL1        0.0000
     10 H           5.8516    2.8632    0.6939 H       1  UNL1        0.0000
     11 H           6.5227    3.6233   -0.7525 H       1  UNL1        0.0000
     12 C           5.6198    5.0222    0.5657 C.3     1  UNL1        0.0000
     13 H           5.3348    5.7335   -0.2194 H       1  UNL1        0.0000
     14 H           6.6339    5.2862    0.9159 H       1  UNL1        0.0000
     15 C           5.0753    4.4183    2.8589 C.3     1  UNL1        0.0000
     16 H           6.1167    4.6375    3.1443 H       1  UNL1        0.0000
     17 H           4.9660    3.3535    2.6429 H       1  UNL1        0.0000
     18 H           4.4172    4.6622    3.7008 H       1  UNL1        0.0000
     19 C           4.7387    6.6392    2.0477 C.3     1  UNL1        0.0000
     20 H           4.3796    7.2477    1.2136 H       1  UNL1        0.0000
     21 H           5.7718    6.9339    2.2845 H       1  UNL1        0.0000
     22 H           4.1086    6.8403    2.9164 H       1  UNL1        0.0000
     23 C           1.2689    2.3609    3.1328 C.3     1  UNL1        0.0000
     24 H           1.2134    3.0493    3.9922 H       1  UNL1        0.0000
     25 H           1.3953    1.3426    3.5355 H       1  UNL1        0.0000
     26 C          -0.0805    2.3998    2.3837 C.3     1  UNL1        0.0000
     27 H          -0.8553    1.9901    3.0377 H       1  UNL1        0.0000
     28 H          -0.0061    1.7574    1.5058 H       1  UNL1        0.0000
     29 C          -0.5212    3.8126    2.0002 C.3     1  UNL1        0.0000
     30 H          -0.4749    4.4351    2.9022 H       1  UNL1        0.0000
     31 H          -1.5737    3.7702    1.6665 H       1  UNL1        0.0000
     32 C           0.1316    3.8284   -0.3437 C.3     1  UNL1        0.0000
     33 H           0.6044    2.8448   -0.3088 H       1  UNL1        0.0000
     34 H           0.6417    4.4217   -1.1114 H       1  UNL1        0.0000
     35 H          -0.9301    3.7244   -0.6197 H       1  UNL1        0.0000
     36 C          -0.2838    5.8595    0.8421 C.3     1  UNL1        0.0000
     37 H          -0.1297    6.4024    1.7782 H       1  UNL1        0.0000
     38 H          -1.3615    5.8219    0.6256 H       1  UNL1        0.0000
     39 H           0.2162    6.4073    0.0410 H       1  UNL1        0.0000
     40 C           1.9478    0.3370    0.2349 C.3     1  UNL1        0.0000
     41 H           1.4579   -0.2559    1.0017 H       1  UNL1        0.0000
     42 H           2.5720   -0.3375   -0.3422 H       1  UNL1        0.0000
     43 H           1.1802    0.7125   -0.4369 H       1  UNL1        0.0000
     44 C           4.5340    0.6712    1.6502 C.3     1  UNL1        0.0000
     45 H           4.1989   -0.2844    2.0407 H       1  UNL1        0.0000
     46 H           5.1175    1.1479    2.4335 H       1  UNL1        0.0000
     47 H           5.2001    0.4611    0.8185 H       1  UNL1        0.0000
@<TRIPOS>BOND
     1     8     6    1
     2     7     6    1
     3    34    32    1
     4     6     9    1
     5     6     2    1
     6    11     9    1
     7    35    32    1
     8    43    40    1
     9    32    33    1
    10    32     4    1
    11    42    40    1
    12    13    12    1
    13     9    12    1
    14     9    10    1
    15     2     1    1
    16    39    36    1
    17    40    41    1
    18    40     1    1
    19    12    14    1
    20    12     5    1
    21    38    36    1
    22    47    44    1
    23    36     4    1
    24    36    37    1
    25     4    29    1
    26     1    44    1
    27     1     3    1
    28    20    19    1
    29    28    26    1
    30    44    45    1
    31    44    46    1
    32    31    29    1
    33     5    19    1
    34     5    15    1
    35    29    26    1
    36    29    30    1
    37    19    21    1
    38    19    22    1
    39     3    23    1
    40    26    27    1
    41    26    23    1
    42    17    15    1
    43    15    16    1
    44    15    18    1
    45    23    25    1
    46    23    24    1
