@<TRIPOS>MOLECULE
3,4,5,6
 63 64 0 0 0
SMALL
GASTEIGER

@<TRIPOS>ATOM
      1 SI          3.7289   16.9782   14.3177 Si      1  UNL1        0.0000
      2 SI          3.7862   24.0723   12.1041 Si      1  UNL1        0.0000
      3 N           2.6937   18.1966   13.6802 N.3     1  UNL1        0.0000
      4 N           0.7919   19.0721   12.8667 N.3     1  UNL1        0.0000
      5 N           3.1032   22.5003   11.9530 N.3     1  UNL1        0.0000
      6 N           1.8637   20.8506   11.0956 N.3     1  UNL1        0.0000
      7 C           1.5121   18.0036   13.0949 C.3     1  UNL1        0.0000
      8 C           2.3093   22.0778   10.9746 C.3     1  UNL1        0.0000
      9 C          -0.4206   19.0130   12.0791 C.3     1  UNL1        0.0000
     10 H          -1.2910   19.0684   12.7479 H       1  UNL1        0.0000
     11 H          -0.4814   18.0714   11.5133 H       1  UNL1        0.0000
     12 C          -0.4844   20.1937   11.0997 C.3     1  UNL1        0.0000
     13 H          -1.3411   20.0537   10.4363 H       1  UNL1        0.0000
     14 H          -0.6287   21.1151   11.6691 H       1  UNL1        0.0000
     15 C           0.8002   20.3308   10.2628 C.3     1  UNL1        0.0000
     16 H           0.6078   20.9785    9.3952 H       1  UNL1        0.0000
     17 H           1.0935   19.3390    9.8936 H       1  UNL1        0.0000
     18 C           1.0467   16.6446   12.7222 C.ar    1  UNL1        0.0000
     19 C           1.6575   15.9649   11.6752 C.ar    1  UNL1        0.0000
     20 H           2.4731   16.4370   11.1463 H       1  UNL1        0.0000
     21 C           1.2245   14.7003   11.3186 C.ar    1  UNL1        0.0000
     22 H           1.7018   14.1767   10.5025 H       1  UNL1        0.0000
     23 C           0.1824   14.1035   12.0088 C.ar    1  UNL1        0.0000
     24 H          -0.1510   13.1135   11.7339 H       1  UNL1        0.0000
     25 C          -0.4324   14.7790   13.0501 C.ar    1  UNL1        0.0000
     26 H          -1.2465   14.3147   13.5875 H       1  UNL1        0.0000
     27 C          -0.0095   16.0484   13.4012 C.ar    1  UNL1        0.0000
     28 H          -0.4876   16.5853   14.2074 H       1  UNL1        0.0000
     29 C           1.9799   22.9488    9.8162 C.ar    1  UNL1        0.0000
     30 C           2.8958   23.1032    8.7824 C.ar    1  UNL1        0.0000
     31 H           3.8345   22.5697    8.8214 H       1  UNL1        0.0000
     32 C           2.6085   23.9301    7.7111 C.ar    1  UNL1        0.0000
     33 H           3.3283   24.0472    6.9137 H       1  UNL1        0.0000
     34 C           1.4010   24.6057    7.6585 C.ar    1  UNL1        0.0000
     35 H           1.1786   25.2532    6.8231 H       1  UNL1        0.0000
     36 C           0.4783   24.4452    8.6786 C.ar    1  UNL1        0.0000
     37 H          -0.4671   24.9664    8.6385 H       1  UNL1        0.0000
     38 C           0.7630   23.6188    9.7509 C.ar    1  UNL1        0.0000
     39 H           0.0450   23.4954   10.5477 H       1  UNL1        0.0000
     40 C           2.9950   15.2585   14.7317 C.3     1  UNL1        0.0000
     41 H           2.0687   15.3496   15.2904 H       1  UNL1        0.0000
     42 H           3.6902   14.6874   15.3399 H       1  UNL1        0.0000
     43 H           2.7819   14.6746   13.8429 H       1  UNL1        0.0000
     44 C           4.3702   17.6506   15.9973 C.3     1  UNL1        0.0000
     45 H           5.4543   17.6280   16.0551 H       1  UNL1        0.0000
     46 H           3.9942   17.0587   16.8256 H       1  UNL1        0.0000
     47 H           4.0370   18.6709   16.1495 H       1  UNL1        0.0000
     48 C           5.2202   16.6638   13.1513 C.3     1  UNL1        0.0000
     49 H           4.9304   16.0706   12.2894 H       1  UNL1        0.0000
     50 H           6.0090   16.1243   13.6663 H       1  UNL1        0.0000
     51 H           5.6355   17.5963   12.7852 H       1  UNL1        0.0000
     52 C           2.6546   25.5606   11.6889 C.3     1  UNL1        0.0000
     53 H           2.5082   25.6690   10.6187 H       1  UNL1        0.0000
     54 H           3.0888   26.4867   12.0537 H       1  UNL1        0.0000
     55 H           1.6755   25.4559   12.1454 H       1  UNL1        0.0000
     56 C           5.3603   24.3266   11.0263 C.3     1  UNL1        0.0000
     57 H           6.0096   23.4552   11.0072 H       1  UNL1        0.0000
     58 H           5.9466   25.1589   11.4024 H       1  UNL1        0.0000
     59 H           5.0932   24.5565    9.9994 H       1  UNL1        0.0000
     60 C           4.2558   24.1992   13.9496 C.3     1  UNL1        0.0000
     61 H           3.5509   23.6281   14.5473 H       1  UNL1        0.0000
     62 H           4.2340   25.2290   14.2903 H       1  UNL1        0.0000
     63 H           5.2533   23.8172   14.1423 H       1  UNL1        0.0000
@<TRIPOS>BOND
     1    35    34    1
     2    33    32    1
     3    34    32   ar
     4    34    36   ar
     5    32    30   ar
     6    37    36    1
     7    36    38   ar
     8    30    31    1
     9    30    29   ar
    10    16    15    1
    11    38    29   ar
    12    38    39    1
    13    29     8    1
    14    17    15    1
    15    59    56    1
    16    15     6    1
    17    15    12    1
    18    13    12    1
    19    22    21    1
    20    53    52    1
    21     8     6    1
    22     8     5    1
    23    57    56    1
    24    56    58    1
    25    56     2    1
    26    12    14    1
    27    12     9    1
    28    20    19    1
    29    21    19   ar
    30    21    23   ar
    31    11     9    1
    32    19    18   ar
    33    52    54    1
    34    52     2    1
    35    52    55    1
    36    24    23    1
    37     5     2    1
    38    23    25   ar
    39     9    10    1
    40     9     4    1
    41     2    60    1
    42    49    48    1
    43    18     7    1
    44    18    27   ar
    45    51    48    1
    46     4     7    1
    47    25    27   ar
    48    25    26    1
    49     7     3    1
    50    48    50    1
    51    48     1    1
    52    27    28    1
    53     3     1    1
    54    43    40    1
    55    60    63    1
    56    60    62    1
    57    60    61    1
    58     1    40    1
    59     1    44    1
    60    40    41    1
    61    40    42    1
    62    44    45    1
    63    44    47    1
    64    44    46    1
