@<TRIPOS>MOLECULE
1,2,3,4
 76 84 0 0 0
SMALL
GASTEIGER

@<TRIPOS>ATOM
      1 N          -1.8342    4.5061   12.4574 N.ar    1  UNL1       -0.2465
      2 N          -3.0936    4.7340   14.9609 N.2     1  UNL1       -0.2465
      3 N          -2.7423    7.5546   14.9139 N.ar    1  UNL1       -0.2465
      4 N          -1.3850    7.3295   12.4617 N.2     1  UNL1       -0.2465
      5 C          -1.2303    4.6125   11.2379 C.ar    1  UNL1        0.0743
      6 C          -0.8301    3.3127   10.7686 C.ar    1  UNL1       -0.0336
      7 H          -0.3288    3.1201    9.8397 H       1  UNL1        0.0640
      8 C          -1.1516    2.4288   11.7440 C.ar    1  UNL1       -0.0336
      9 H          -0.9647    1.3730   11.7649 H       1  UNL1        0.0640
     10 C          -1.7952    3.1808   12.7870 C.ar    1  UNL1        0.0743
     11 C          -2.2922    2.6280   13.9720 C.2     1  UNL1        0.0328
     12 C          -2.9507    3.3750   14.9555 C.2     1  UNL1        0.0743
     13 C          -3.6426    2.7958   16.0754 C.2     1  UNL1       -0.0336
     14 H          -3.7024    1.7465   16.2890 H       1  UNL1        0.0640
     15 C          -4.2171    3.8199   16.7510 C.2     1  UNL1       -0.0336
     16 H          -4.8290    3.7736   17.6301 H       1  UNL1        0.0640
     17 C          -3.8371    5.0281   16.0709 C.2     1  UNL1        0.0743
     18 C          -4.0880    6.3121   16.5595 C.2     1  UNL1        0.0328
     19 C          -3.4905    7.4704   16.0519 C.ar    1  UNL1        0.0743
     20 C          -3.4573    8.7180   16.7649 C.ar    1  UNL1       -0.0336
     21 H          -3.9569    8.9069   17.6949 H       1  UNL1        0.0640
     22 C          -2.6510    9.5483   16.0605 C.ar    1  UNL1       -0.0336
     23 H          -2.3626   10.5525   16.3020 H       1  UNL1        0.0640
     24 C          -2.2272    8.8202   14.8952 C.ar    1  UNL1        0.0743
     25 C          -1.3953    9.3321   13.8952 C.2     1  UNL1        0.0328
     26 C          -1.0247    8.6158   12.7523 C.2     1  UNL1        0.0743
     27 C          -0.2449    9.1681   11.6784 C.2     1  UNL1       -0.0336
     28 H           0.1511   10.1644   11.6495 H       1  UNL1        0.0640
     29 C          -0.1414    8.2020   10.7348 C.2     1  UNL1       -0.0336
     30 H           0.3665    8.2557    9.7916 H       1  UNL1        0.0640
     31 C          -0.8355    7.0486   11.2430 C.2     1  UNL1        0.0743
     32 C          -0.8245    5.7982   10.6206 C.2     1  UNL1        0.0328
     33 C          -2.1433    1.1749   14.1965 C.ar    1  UNL1       -0.0138
     34 C          -2.7215    0.2470   13.3349 C.ar    1  UNL1       -0.0539
     35 H          -3.3037    0.5919   12.4928 H       1  UNL1        0.0624
     36 C          -2.5733   -1.1090   13.5639 C.ar    1  UNL1       -0.0612
     37 H          -3.0320   -1.8188   12.8913 H       1  UNL1        0.0618
     38 C          -1.8420   -1.5572   14.6511 C.ar    1  UNL1       -0.0617
     39 H          -1.7252   -2.6162   14.8266 H       1  UNL1        0.0618
     40 C          -1.2637   -0.6411   15.5141 C.ar    1  UNL1       -0.0612
     41 H          -0.6925   -0.9848   16.3640 H       1  UNL1        0.0618
     42 C          -1.4163    0.7150   15.2917 C.ar    1  UNL1       -0.0539
     43 H          -0.9630    1.4312   15.9616 H       1  UNL1        0.0624
     44 C          -4.9825    6.4678   17.7274 C.ar    1  UNL1       -0.0138
     45 C          -6.2288    7.0545   17.5293 C.ar    1  UNL1       -0.0539
     46 H          -6.5057    7.3576   16.5307 H       1  UNL1        0.0624
     47 C          -7.0949    7.2147   18.5955 C.ar    1  UNL1       -0.0612
     48 H          -8.0640    7.6637   18.4363 H       1  UNL1        0.0618
     49 C          -6.7226    6.8024   19.8649 C.ar    1  UNL1       -0.0617
     50 H          -7.3989    6.9318   20.6972 H       1  UNL1        0.0618
     51 C          -5.4810    6.2231   20.0660 C.ar    1  UNL1       -0.0612
     52 H          -5.1870    5.9030   21.0552 H       1  UNL1        0.0618
     53 C          -4.6131    6.0525   19.0015 C.ar    1  UNL1       -0.0539
     54 H          -3.6403    5.6077   19.1564 H       1  UNL1        0.0624
     55 C          -0.9197   10.7255   14.0302 C.ar    1  UNL1       -0.0138
     56 C          -1.8278   11.7804   14.0176 C.ar    1  UNL1       -0.0539
     57 H          -2.8804   11.5698   13.8977 H       1  UNL1        0.0624
     58 C          -1.3850   13.0848   14.1416 C.ar    1  UNL1       -0.0612
     59 H          -2.0971   13.8967   14.1262 H       1  UNL1        0.0618
     60 C          -0.0334   13.3512   14.2854 C.ar    1  UNL1       -0.0617
     61 H           0.3106   14.3697   14.3860 H       1  UNL1        0.0618
     62 C           0.8759   12.3066   14.2991 C.ar    1  UNL1       -0.0612
     63 H           1.9308   12.5092   14.4123 H       1  UNL1        0.0618
     64 C           0.4372   11.0014   14.1684 C.ar    1  UNL1       -0.0539
     65 H           1.1435   10.1840   14.1840 H       1  UNL1        0.0624
     66 C          -0.1902    5.6879    9.2852 C.ar    1  UNL1       -0.0138
     67 C           1.1843    5.8360    9.1285 C.ar    1  UNL1       -0.0539
     68 H           1.7999    6.0263    9.9960 H       1  UNL1        0.0624
     69 C           1.7600    5.7266    7.8752 C.ar    1  UNL1       -0.0612
     70 H           2.8286    5.8390    7.7638 H       1  UNL1        0.0618
     71 C           0.9697    5.4727    6.7666 C.ar    1  UNL1       -0.0617
     72 H           1.4204    5.3904    5.7887 H       1  UNL1        0.0618
     73 C          -0.3989    5.3228    6.9173 C.ar    1  UNL1       -0.0612
     74 H          -1.0184    5.1247    6.0551 H       1  UNL1        0.0618
     75 C          -0.9775    5.4250    8.1697 C.ar    1  UNL1       -0.0539
     76 H          -2.0426    5.3153    8.2975 H       1  UNL1        0.0624
@<TRIPOS>BOND
     1    72    71    1
     2    74    73    1
     3    71    73   ar
     4    71    69   ar
     5    73    75   ar
     6    70    69    1
     7    69    67   ar
     8    75    76    1
     9    75    66   ar
    10    67    66   ar
    11    67    68    1
    12    66    32    1
    13    30    29    1
    14     7     6    1
    15    32     5    2
    16    32    31    1
    17    29    31    1
    18    29    27    2
    19     6     5   ar
    20     6     8   ar
    21     5     1   ar
    22    31     4    2
    23    28    27    1
    24    27    26    1
    25     8     9    1
    26     8    10   ar
    27     1    10   ar
    28     4    26    1
    29    35    34    1
    30    26    25    2
    31    10    11    2
    32    37    36    1
    33    34    36   ar
    34    34    33   ar
    35    36    38   ar
    36    25    55    1
    37    25    24    1
    38    57    56    1
    39    11    33    1
    40    11    12    1
    41    56    55   ar
    42    56    58   ar
    43    55    64   ar
    44    59    58    1
    45    58    60   ar
    46    64    65    1
    47    64    62   ar
    48    33    42   ar
    49    60    62   ar
    50    60    61    1
    51    62    63    1
    52    38    39    1
    53    38    40   ar
    54    24     3   ar
    55    24    22   ar
    56     3    19   ar
    57    12     2    2
    58    12    13    1
    59     2    17    1
    60    42    40   ar
    61    42    43    1
    62    40    41    1
    63    19    18    1
    64    19    20   ar
    65    22    23    1
    66    22    20   ar
    67    17    18    2
    68    17    15    1
    69    13    14    1
    70    13    15    2
    71    46    45    1
    72    18    44    1
    73    15    16    1
    74    20    21    1
    75    45    44   ar
    76    45    47   ar
    77    44    53   ar
    78    48    47    1
    79    47    49   ar
    80    53    54    1
    81    53    51   ar
    82    49    51   ar
    83    49    50    1
    84    51    52    1
