@<TRIPOS>MOLECULE
1,2,3,4
 61 60 0 0 0
SMALL
GASTEIGER

@<TRIPOS>ATOM
      1 N           4.5336   -0.6803    3.3108 N.3     1  UNL1        0.0000
      2 N           1.9952    1.0836    5.4539 N.3     1  UNL1        0.0000
      3 N           1.6236    0.7480    2.1593 N.3     1  UNL1        0.0000
      4 N           1.8770   -1.3627    3.9615 N.3     1  UNL1        0.0000
      5 SI          5.1672   -0.9519    1.7325 Si      1  UNL1        0.0000
      6 SI          2.5827    1.7737    6.8994 Si      1  UNL1        0.0000
      7 SI          0.5400    2.0421    1.9049 Si      1  UNL1        0.0000
      8 C           4.2750   -1.7988    4.1865 C.3     1  UNL1        0.0000
      9 H           4.2896   -1.4497    5.2410 H       1  UNL1        0.0000
     10 H           5.0351   -2.5898    4.0967 H       1  UNL1        0.0000
     11 C           0.8378    0.2203    5.5028 C.3     1  UNL1        0.0000
     12 H           0.1235    0.5115    4.7123 H       1  UNL1        0.0000
     13 H           0.3085    0.2868    6.4630 H       1  UNL1        0.0000
     14 C           1.3329   -0.5898    1.7025 C.3     1  UNL1        0.0000
     15 H           2.2349   -1.0400    1.2572 H       1  UNL1        0.0000
     16 H           0.5436   -0.6099    0.9374 H       1  UNL1        0.0000
     17 C           2.8923   -2.4137    3.8944 C.3     1  UNL1        0.0000
     18 H           2.9179   -2.8246    2.8834 H       1  UNL1        0.0000
     19 H           2.6716   -3.2342    4.5953 H       1  UNL1        0.0000
     20 C           1.2688   -1.2413    5.2863 C.3     1  UNL1        0.0000
     21 H           2.0214   -1.4762    6.0478 H       1  UNL1        0.0000
     22 H           0.4189   -1.9350    5.4042 H       1  UNL1        0.0000
     23 C           0.8774   -1.4592    2.8938 C.3     1  UNL1        0.0000
     24 H          -0.0743   -1.0568    3.2507 H       1  UNL1        0.0000
     25 H           0.7145   -2.5034    2.5865 H       1  UNL1        0.0000
     26 C           4.5596    0.4890    0.6291 C.3     1  UNL1        0.0000
     27 H           5.3191    1.2622    0.5683 H       1  UNL1        0.0000
     28 H           3.6417    0.9411    1.0254 H       1  UNL1        0.0000
     29 H           4.3651    0.1536   -0.3854 H       1  UNL1        0.0000
     30 C           7.0805   -1.0889    1.6816 C.3     1  UNL1        0.0000
     31 H           7.5566   -0.1423    1.9092 H       1  UNL1        0.0000
     32 H           7.4193   -1.3985    0.6983 H       1  UNL1        0.0000
     33 H           7.4458   -1.8194    2.3978 H       1  UNL1        0.0000
     34 C           4.6339   -2.6109    0.8922 C.3     1  UNL1        0.0000
     35 H           3.5788   -2.6639    0.6392 H       1  UNL1        0.0000
     36 H           4.8690   -3.4629    1.5238 H       1  UNL1        0.0000
     37 H           5.1872   -2.7417   -0.0321 H       1  UNL1        0.0000
     38 C           1.1540    2.2639    8.0879 C.3     1  UNL1        0.0000
     39 H           0.3675    2.7936    7.5599 H       1  UNL1        0.0000
     40 H           1.5114    2.9122    8.8800 H       1  UNL1        0.0000
     41 H           0.7076    1.3948    8.5613 H       1  UNL1        0.0000
     42 C           3.5152    3.3842    6.4731 C.3     1  UNL1        0.0000
     43 H           4.4297    3.1912    5.9173 H       1  UNL1        0.0000
     44 H           3.7912    3.9155    7.3779 H       1  UNL1        0.0000
     45 H           2.9029    4.0507    5.8720 H       1  UNL1        0.0000
     46 C           3.6986    0.6102    7.9706 C.3     1  UNL1        0.0000
     47 H           4.4624    0.1180    7.3688 H       1  UNL1        0.0000
     48 H           3.1140   -0.1650    8.4603 H       1  UNL1        0.0000
     49 H           4.2105    1.1662    8.7489 H       1  UNL1        0.0000
     50 C          -1.3185    1.5308    1.9257 C.3     1  UNL1        0.0000
     51 H          -1.6471    1.2148    2.9120 H       1  UNL1        0.0000
     52 H          -1.5056    0.7113    1.2384 H       1  UNL1        0.0000
     53 H          -1.9523    2.3560    1.6204 H       1  UNL1        0.0000
     54 C           0.8144    3.3044    3.3171 C.3     1  UNL1        0.0000
     55 H           1.5285    4.0670    3.0160 H       1  UNL1        0.0000
     56 H           1.2029    2.8117    4.2133 H       1  UNL1        0.0000
     57 H          -0.1067    3.8161    3.5790 H       1  UNL1        0.0000
     58 C           0.8218    2.9092    0.2099 C.3     1  UNL1        0.0000
     59 H           1.8601    3.2098    0.0955 H       1  UNL1        0.0000
     60 H           0.2094    3.7999    0.1149 H       1  UNL1        0.0000
     61 H           0.5768    2.2535   -0.6207 H       1  UNL1        0.0000
@<TRIPOS>BOND
     1    61    58    1
     2    29    26    1
     3    37    34    1
     4    59    58    1
     5    60    58    1
     6    58     7    1
     7    27    26    1
     8    26    28    1
     9    26     5    1
    10    35    34    1
    11    32    30    1
    12    34    36    1
    13    34     5    1
    14    16    14    1
    15    52    50    1
    16    15    14    1
    17    53    50    1
    18    30     5    1
    19    30    31    1
    20    30    33    1
    21    14     3    1
    22    14    23    1
    23     5     1    1
    24     7    50    1
    25     7     3    1
    26     7    54    1
    27    50    51    1
    28    25    23    1
    29    18    17    1
    30    23    24    1
    31    23     4    1
    32    55    54    1
    33     1     8    1
    34    54    57    1
    35    54    56    1
    36    17     4    1
    37    17     8    1
    38    17    19    1
    39     4    20    1
    40    10     8    1
    41     8     9    1
    42    12    11    1
    43    20    22    1
    44    20    11    1
    45    20    21    1
    46     2    11    1
    47     2     6    1
    48    11    13    1
    49    45    42    1
    50    43    42    1
    51    42     6    1
    52    42    44    1
    53     6    46    1
    54     6    38    1
    55    47    46    1
    56    39    38    1
    57    46    48    1
    58    46    49    1
    59    38    41    1
    60    38    40    1
