@<TRIPOS>MOLECULE
1,2,3,4
 61 60 0 0 0
SMALL
GASTEIGER

@<TRIPOS>ATOM
      1 N           9.5545    5.6866   10.6523 N.3     1  UNL1        0.0000
      2 N          10.6000    2.3643   10.2904 N.3     1  UNL1        0.0000
      3 N          10.4829    3.8295   13.4624 N.3     1  UNL1        0.0000
      4 N          12.0797    4.5687   11.2540 N.3     1  UNL1        0.0000
      5 SI          8.6941    6.8917   11.4917 Si      1  UNL1        0.0000
      6 SI          9.9315    2.1106    8.7457 Si      1  UNL1        0.0000
      7 SI         10.4527    2.3910   14.3712 Si      1  UNL1        0.0000
      8 C          10.6903    5.9834    9.8132 C.3     1  UNL1        0.0000
      9 H          10.6333    6.9882    9.3675 H       1  UNL1        0.0000
     10 H          10.7410    5.2557    8.9838 H       1  UNL1        0.0000
     11 C          12.0089    2.2186   10.5653 C.3     1  UNL1        0.0000
     12 H          12.4938    1.4865    9.9017 H       1  UNL1        0.0000
     13 H          12.1520    1.8702   11.6038 H       1  UNL1        0.0000
     14 C          11.5009    4.8390   13.6205 C.3     1  UNL1        0.0000
     15 H          11.9360    4.8441   14.6313 H       1  UNL1        0.0000
     16 H          11.0661    5.8385   13.4418 H       1  UNL1        0.0000
     17 C          11.9933    5.8933   10.6387 C.3     1  UNL1        0.0000
     18 H          12.8765    6.1092   10.0154 H       1  UNL1        0.0000
     19 H          11.9316    6.6493   11.4264 H       1  UNL1        0.0000
     20 C          12.7220    3.5777   10.3905 C.3     1  UNL1        0.0000
     21 H          13.8004    3.4932   10.6025 H       1  UNL1        0.0000
     22 H          12.5960    3.8787    9.3468 H       1  UNL1        0.0000
     23 C          12.6405    4.5998   12.6050 C.3     1  UNL1        0.0000
     24 H          13.4272    5.3662   12.6999 H       1  UNL1        0.0000
     25 H          13.0781    3.6235   12.8323 H       1  UNL1        0.0000
     26 C           7.2031    7.5630   10.4751 C.3     1  UNL1        0.0000
     27 H           7.5322    8.1450    9.6198 H       1  UNL1        0.0000
     28 H           6.5648    8.2006   11.0780 H       1  UNL1        0.0000
     29 H           6.5939    6.7463   10.0985 H       1  UNL1        0.0000
     30 C           9.7065    8.4579   11.9948 C.3     1  UNL1        0.0000
     31 H          10.2557    8.8524   11.1448 H       1  UNL1        0.0000
     32 H          10.4251    8.2510   12.7836 H       1  UNL1        0.0000
     33 H           9.0553    9.2496   12.3502 H       1  UNL1        0.0000
     34 C           8.0230    6.0996   13.1076 C.3     1  UNL1        0.0000
     35 H           7.0122    5.7323   12.9590 H       1  UNL1        0.0000
     36 H           7.9792    6.8273   13.9128 H       1  UNL1        0.0000
     37 H           8.6459    5.2589   13.4338 H       1  UNL1        0.0000
     38 C          11.1118    2.4357    7.2523 C.3     1  UNL1        0.0000
     39 H          12.0569    1.9180    7.3865 H       1  UNL1        0.0000
     40 H          11.3310    3.4921    7.1205 H       1  UNL1        0.0000
     41 H          10.6791    2.0769    6.3243 H       1  UNL1        0.0000
     42 C           8.4328    3.2986    8.5581 C.3     1  UNL1        0.0000
     43 H           7.5084    2.7837    8.8006 H       1  UNL1        0.0000
     44 H           8.3374    3.6533    7.5360 H       1  UNL1        0.0000
     45 H           8.5211    4.1679    9.2198 H       1  UNL1        0.0000
     46 C           9.3086    0.3032    8.5148 C.3     1  UNL1        0.0000
     47 H          10.1334   -0.4012    8.4688 H       1  UNL1        0.0000
     48 H           8.7337    0.1933    7.6012 H       1  UNL1        0.0000
     49 H           8.6726    0.0063    9.3439 H       1  UNL1        0.0000
     50 C          12.1628    1.7841   15.0279 C.3     1  UNL1        0.0000
     51 H          12.8108    1.4326   14.2290 H       1  UNL1        0.0000
     52 H          12.0468    0.9688   15.7340 H       1  UNL1        0.0000
     53 H          12.6840    2.5846   15.5445 H       1  UNL1        0.0000
     54 C           9.7402    1.0037   13.2472 C.3     1  UNL1        0.0000
     55 H           9.8282    1.2613   12.1853 H       1  UNL1        0.0000
     56 H           8.6902    0.8402   13.4670 H       1  UNL1        0.0000
     57 H          10.2489    0.0586   13.4141 H       1  UNL1        0.0000
     58 C           9.3307    2.5430   15.9291 C.3     1  UNL1        0.0000
     59 H           9.7579    3.2158   16.6664 H       1  UNL1        0.0000
     60 H           9.1840    1.5816   16.4101 H       1  UNL1        0.0000
     61 H           8.3521    2.9320   15.6618 H       1  UNL1        0.0000
@<TRIPOS>BOND
     1    41    38    1
     2    40    38    1
     3    38    39    1
     4    38     6    1
     5    44    42    1
     6    48    46    1
     7    47    46    1
     8    46     6    1
     9    46    49    1
    10    42     6    1
    11    42    43    1
    12    42    45    1
    13     6     2    1
    14    10     8    1
    15    22    20    1
    16     9     8    1
    17    27    26    1
    18     8    17    1
    19     8     1    1
    20    12    11    1
    21    18    17    1
    22    29    26    1
    23     2    11    1
    24    20    11    1
    25    20    21    1
    26    20     4    1
    27    26    28    1
    28    26     5    1
    29    11    13    1
    30    17     4    1
    31    17    19    1
    32     1     5    1
    33    31    30    1
    34     4    23    1
    35     5    30    1
    36     5    34    1
    37    30    33    1
    38    30    32    1
    39    55    54    1
    40    23    24    1
    41    23    25    1
    42    23    14    1
    43    35    34    1
    44    34    37    1
    45    34    36    1
    46    54    57    1
    47    54    56    1
    48    54     7    1
    49    16    14    1
    50     3    14    1
    51     3     7    1
    52    14    15    1
    53    51    50    1
    54     7    50    1
    55     7    58    1
    56    50    53    1
    57    50    52    1
    58    61    58    1
    59    58    60    1
    60    58    59    1
