@<TRIPOS>MOLECULE
2,3,4,5
 59 62 0 0 0
SMALL
GASTEIGER

@<TRIPOS>ATOM
      1 SI          6.7660   -0.3399    5.9230 Si      1  UNL1        0.0000
      2 N           8.3584    1.5879    3.0312 N.pl3   1  UNL1        0.0000
      3 N           7.8402    0.3090    4.7474 N.3     1  UNL1        0.0000
      4 N           5.7774   -0.9470    4.6550 N.3     1  UNL1        0.0000
      5 N           4.4737   -0.8367    2.8861 N.pl3   1  UNL1        0.0000
      6 C           9.2904    2.2963    2.2826 C.ar    1  UNL1        0.0000
      7 C           8.8754    2.9748    1.1303 C.ar    1  UNL1        0.0000
      8 H           7.8288    2.9619    0.8575 H       1  UNL1        0.0000
      9 C           9.7949    3.6395    0.3431 C.ar    1  UNL1        0.0000
     10 H           9.4578    4.1609   -0.5410 H       1  UNL1        0.0000
     11 C          11.1405    3.6406    0.6751 C.ar    1  UNL1        0.0000
     12 H          11.8548    4.1630    0.0566 H       1  UNL1        0.0000
     13 C          11.5643    2.9497    1.7986 C.ar    1  UNL1        0.0000
     14 H          12.6140    2.9256    2.0547 H       1  UNL1        0.0000
     15 C          10.6563    2.2791    2.5928 C.ar    1  UNL1        0.0000
     16 H          10.9959    1.7218    3.4551 H       1  UNL1        0.0000
     17 C           8.4805    1.3741    4.3438 C.3     1  UNL1        0.0000
     18 C           9.2053    2.2649    5.2820 C.ar    1  UNL1        0.0000
     19 C           9.3168    3.6356    5.0575 C.ar    1  UNL1        0.0000
     20 H           8.9027    4.0704    4.1597 H       1  UNL1        0.0000
     21 C           9.9595    4.4400    5.9802 C.ar    1  UNL1        0.0000
     22 H          10.0421    5.5013    5.7981 H       1  UNL1        0.0000
     23 C          10.4990    3.8908    7.1323 C.ar    1  UNL1        0.0000
     24 H          11.0048    4.5225    7.8473 H       1  UNL1        0.0000
     25 C          10.3886    2.5294    7.3633 C.ar    1  UNL1        0.0000
     26 H          10.8091    2.0973    8.2596 H       1  UNL1        0.0000
     27 C           9.7422    1.7221    6.4464 C.ar    1  UNL1        0.0000
     28 H           9.6515    0.6591    6.6111 H       1  UNL1        0.0000
     29 C           7.5816   -1.7313    6.9425 C.3     1  UNL1        0.0000
     30 H           8.3484   -1.3354    7.5997 H       1  UNL1        0.0000
     31 H           8.0447   -2.4753    6.3033 H       1  UNL1        0.0000
     32 H           6.8510   -2.2352    7.5660 H       1  UNL1        0.0000
     33 C           5.9428    0.8947    7.1375 C.3     1  UNL1        0.0000
     34 H           6.5912    1.0887    7.9853 H       1  UNL1        0.0000
     35 H           5.0084    0.4967    7.5215 H       1  UNL1        0.0000
     36 H           5.7326    1.8461    6.6610 H       1  UNL1        0.0000
     37 C           4.5716   -1.1296    4.1815 C.3     1  UNL1        0.0000
     38 C           3.4421   -1.5595    5.0426 C.ar    1  UNL1        0.0000
     39 C           3.6957   -2.4083    6.1163 C.ar    1  UNL1        0.0000
     40 H           4.7029   -2.7668    6.2671 H       1  UNL1        0.0000
     41 C           2.6715   -2.7918    6.9620 C.ar    1  UNL1        0.0000
     42 H           2.8755   -3.4582    7.7873 H       1  UNL1        0.0000
     43 C           1.3852   -2.3230    6.7510 C.ar    1  UNL1        0.0000
     44 H           0.5847   -2.6221    7.4113 H       1  UNL1        0.0000
     45 C           1.1276   -1.4693    5.6905 C.ar    1  UNL1        0.0000
     46 H           0.1264   -1.0995    5.5254 H       1  UNL1        0.0000
     47 C           2.1469   -1.0884    4.8378 C.ar    1  UNL1        0.0000
     48 H           1.9408   -0.4249    4.0106 H       1  UNL1        0.0000
     49 C           3.4660   -1.3381    2.0691 C.ar    1  UNL1        0.0000
     50 C           2.9439   -2.6257    2.2417 C.ar    1  UNL1        0.0000
     51 H           3.3135   -3.2441    3.0484 H       1  UNL1        0.0000
     52 C           1.9797   -3.1124    1.3819 C.ar    1  UNL1        0.0000
     53 H           1.5884   -4.1087    1.5307 H       1  UNL1        0.0000
     54 C           1.5210   -2.3377    0.3291 C.ar    1  UNL1        0.0000
     55 H           0.7674   -2.7231   -0.3413 H       1  UNL1        0.0000
     56 C           2.0502   -1.0717    0.1344 C.ar    1  UNL1        0.0000
     57 H           1.7101   -0.4671   -0.6938 H       1  UNL1        0.0000
     58 C           3.0135   -0.5726    0.9886 C.ar    1  UNL1        0.0000
     59 H           3.4386    0.4075    0.8232 H       1  UNL1        0.0000
@<TRIPOS>BOND
     1    57    56    1
     2    10     9    1
     3    55    54    1
     4    12    11    1
     5    56    54   ar
     6    56    58   ar
     7    54    52   ar
     8     9    11   ar
     9     9     7   ar
    10    11    13   ar
    11    59    58    1
    12     8     7    1
    13    58    49   ar
    14     7     6   ar
    15    52    53    1
    16    52    50   ar
    17    13    14    1
    18    13    15   ar
    19    49    50   ar
    20    49     5    1
    21    50    51    1
    22     6    15   ar
    23     6     2    1
    24    15    16    1
    25     5    37    1
    26     2    17    1
    27    48    47    1
    28    20    19    1
    29    37     4    1
    30    37    38    1
    31    17     3    1
    32    17    18    1
    33     4     1    1
    34     3     1    1
    35    47    38   ar
    36    47    45   ar
    37    38    39   ar
    38    19    18   ar
    39    19    21   ar
    40    18    27   ar
    41    46    45    1
    42    45    43   ar
    43    22    21    1
    44     1    29    1
    45     1    33    1
    46    21    23   ar
    47    39    40    1
    48    39    41   ar
    49    31    29    1
    50    27    28    1
    51    27    25   ar
    52    36    33    1
    53    43    41   ar
    54    43    44    1
    55    29    32    1
    56    29    30    1
    57    41    42    1
    58    23    25   ar
    59    23    24    1
    60    33    35    1
    61    33    34    1
    62    25    26    1
