@<TRIPOS>MOLECULE
1,2,3,4
 36 36 0 0 0
SMALL
GASTEIGER

@<TRIPOS>ATOM
      1 N          -3.4766    6.1485   13.1259 N.3     1  UNL1       -0.2378
      2 N          -4.1256    4.0752   11.2570 N.3     1  UNL1       -0.3028
      3 N          -1.3370    3.7050   12.1527 N.3     1  UNL1       -0.2378
      4 N          -0.6906    5.7760   14.0256 N.3     1  UNL1       -0.3028
      5 C          -4.8428    5.7838   12.8582 C.3     1  UNL1        0.0268
      6 H          -5.2378    6.4063   12.0434 H       1  UNL1        0.0453
      7 H          -5.4908    5.9516   13.7398 H       1  UNL1        0.0453
      8 C          -4.9613    4.2960   12.4461 C.3     1  UNL1        0.0128
      9 H          -4.6004    3.6830   13.2753 H       1  UNL1        0.0439
     10 H          -6.0091    4.0162   12.2569 H       1  UNL1        0.0439
     11 C          -3.4373    2.7801   11.2820 C.3     1  UNL1        0.0128
     12 H          -2.9440    2.6497   10.3131 H       1  UNL1        0.0439
     13 H          -4.1583    1.9546   11.4274 H       1  UNL1        0.0439
     14 C          -2.3508    2.7022   12.3587 C.3     1  UNL1        0.0268
     15 H          -2.8221    2.7486   13.3701 H       1  UNL1        0.0453
     16 H          -1.9092    1.6822   12.2940 H       1  UNL1        0.0453
     17 C          -0.2557    3.5549   13.0905 C.3     1  UNL1        0.0268
     18 H           0.6788    3.9112   12.6358 H       1  UNL1        0.0453
     19 H          -0.0996    2.4948   13.3679 H       1  UNL1        0.0453
     20 C          -0.5146    4.3619   14.3864 C.3     1  UNL1        0.0128
     21 H          -1.4267    3.9785   14.8497 H       1  UNL1        0.0439
     22 H           0.3058    4.2317   15.1090 H       1  UNL1        0.0439
     23 C          -1.7277    6.4385   14.8237 C.3     1  UNL1        0.0128
     24 H          -1.7038    7.5049   14.5761 H       1  UNL1        0.0439
     25 H          -1.5274    6.3203   15.9046 H       1  UNL1        0.0439
     26 C          -3.1383    5.9311   14.5094 C.3     1  UNL1        0.0268
     27 H          -3.2320    4.8645   14.8270 H       1  UNL1        0.0453
     28 H          -3.8346    6.4909   15.1738 H       1  UNL1        0.0453
     29 C          -4.9734    4.1504   10.0696 C.3     1  UNL1       -0.0127
     30 H          -5.7190    3.3391   10.0580 H       1  UNL1        0.0391
     31 H          -4.3708    4.0727    9.1655 H       1  UNL1        0.0391
     32 H          -5.5031    5.1025   10.0523 H       1  UNL1        0.0391
     33 C           0.5821    6.4681   14.2144 C.3     1  UNL1       -0.0127
     34 H           0.5077    7.5013   13.8775 H       1  UNL1        0.0391
     35 H           1.3629    5.9714   13.6392 H       1  UNL1        0.0391
     36 H           0.8823    6.4717   15.2747 H       1  UNL1        0.0391
@<TRIPOS>BOND
     1    31    29    1
     2    32    29    1
     3    30    29    1
     4    29     2    1
     5    12    11    1
     6     2    11    1
     7     2     8    1
     8    11    13    1
     9    11    14    1
    10     6     5    1
    11     3    14    1
    12     3    17    1
    13    10     8    1
    14    16    14    1
    15    14    15    1
    16     8     5    1
    17     8     9    1
    18    18    17    1
    19     5     1    1
    20     5     7    1
    21    17    19    1
    22    17    20    1
    23     1    26    1
    24    35    33    1
    25    34    33    1
    26     4    33    1
    27     4    20    1
    28     4    23    1
    29    33    36    1
    30    20    21    1
    31    20    22    1
    32    26    23    1
    33    26    27    1
    34    26    28    1
    35    24    23    1
    36    23    25    1
