@<TRIPOS>MOLECULE
1,2,3,4
 74 75 0 0 0
SMALL
GASTEIGER

@<TRIPOS>ATOM
      1 N           7.7657   -0.4039   11.0755 N.pl3   1  UNL1       -0.2372
      2 N           4.7900    0.1755   10.9975 N.pl3   1  UNL1       -0.2538
      3 N           4.6735    2.1834   12.9057 N.pl3   1  UNL1       -0.2538
      4 N           7.4318    2.8845   12.4729 N.pl3   1  UNL1       -0.2372
      5 C           7.3104   -1.3961   10.3126 C.3     1  UNL1        0.0968
      6 C           8.2539   -2.4780    9.8221 C.3     1  UNL1       -0.0359
      7 H           9.2072   -2.4431   10.3424 H       1  UNL1        0.0255
      8 H           8.4391   -2.3772    8.7545 H       1  UNL1        0.0255
      9 H           7.7992   -3.4532    9.9865 H       1  UNL1        0.0255
     10 C           5.9967   -1.5564    9.8759 C.2     1  UNL1       -0.0387
     11 H           5.8515   -2.4044    9.2210 H       1  UNL1        0.0610
     12 C           4.8461   -0.7883   10.1054 C.2     1  UNL1        0.0204
     13 C           3.6473   -1.1401    9.2500 C.3     1  UNL1       -0.0253
     14 H           3.2555   -0.2511    8.7579 H       1  UNL1        0.0290
     15 H           2.8529   -1.5714    9.8595 H       1  UNL1        0.0290
     16 H           3.9194   -1.8649    8.4888 H       1  UNL1        0.0290
     17 C           3.5463    0.9100   11.1656 C.3     1  UNL1        0.0484
     18 H           2.6617    0.2833   10.9969 H       1  UNL1        0.0498
     19 H           3.5187    1.7416   10.4432 H       1  UNL1        0.0498
     20 C           3.4396    1.4955   12.5857 C.3     1  UNL1        0.0484
     21 H           2.5672    2.1617   12.6040 H       1  UNL1        0.0498
     22 H           3.2733    0.6770   13.3006 H       1  UNL1        0.0498
     23 C           4.6544    3.2841   13.6198 C.2     1  UNL1        0.0204
     24 C           3.3917    3.7789   14.2906 C.3     1  UNL1       -0.0253
     25 H           2.8622    2.9599   14.7732 H       1  UNL1        0.0290
     26 H           2.7244    4.2342   13.5579 H       1  UNL1        0.0290
     27 H           3.6314    4.5284   15.0394 H       1  UNL1        0.0290
     28 C           5.7775    4.1157   13.7253 C.2     1  UNL1       -0.0387
     29 H           5.6373    5.0242   14.2924 H       1  UNL1        0.0610
     30 C           7.0026    3.9919   13.0696 C.3     1  UNL1        0.0968
     31 C           7.8624    5.2365   13.0446 C.3     1  UNL1       -0.0359
     32 H           8.7785    5.0777   13.6092 H       1  UNL1        0.0255
     33 H           7.3329    6.0821   13.4740 H       1  UNL1        0.0255
     34 H           8.1451    5.4806   12.0218 H       1  UNL1        0.0255
     35 C           9.1693   -0.1984   11.0624 C.ar    1  UNL1        0.0546
     36 C           9.8046    0.2058    9.8780 C.ar    1  UNL1       -0.0274
     37 C           9.0442    0.4437    8.6060 C.3     1  UNL1       -0.0379
     38 H           9.4313    1.3282    8.1066 H       1  UNL1        0.0278
     39 H           7.9836    0.5815    8.7991 H       1  UNL1        0.0278
     40 H           9.1650   -0.3996    7.9253 H       1  UNL1        0.0278
     41 C          11.1797    0.3875    9.8686 C.ar    1  UNL1       -0.0541
     42 H          11.6537    0.6958    8.9476 H       1  UNL1        0.0623
     43 C          11.9545    0.1719   10.9944 C.ar    1  UNL1       -0.0498
     44 C          13.4431    0.3506   10.9693 C.3     1  UNL1       -0.0397
     45 H          13.7742    0.7087    9.9979 H       1  UNL1        0.0278
     46 H          13.9439   -0.5944   11.1784 H       1  UNL1        0.0278
     47 H          13.7556    1.0651   11.7300 H       1  UNL1        0.0278
     48 C          11.3142   -0.2257   12.1600 C.ar    1  UNL1       -0.0541
     49 H          11.9059   -0.4143   13.0463 H       1  UNL1        0.0623
     50 C           9.3018   -0.8716   13.4908 C.3     1  UNL1       -0.0379
     51 H           8.5181   -0.1710   13.8186 H       1  UNL1        0.0278
     52 H          10.0447   -0.9555   14.2818 H       1  UNL1        0.0278
     53 H           8.8298   -1.8446   13.3551 H       1  UNL1        0.0278
     54 C           9.9425   -0.4101   12.2153 C.ar    1  UNL1       -0.0274
     55 C           8.5703    3.0453   11.6333 C.ar    1  UNL1        0.0546
     56 C           8.3408    3.3203   10.2767 C.ar    1  UNL1       -0.0274
     57 C           6.9322    3.3426    9.7582 C.3     1  UNL1       -0.0379
     58 H           6.9219    3.4919    8.6806 H       1  UNL1        0.0278
     59 H           6.3623    4.1449   10.2290 H       1  UNL1        0.0278
     60 H           6.4283    2.3981    9.9979 H       1  UNL1        0.0278
     61 C           9.4131    3.5873    9.4439 C.ar    1  UNL1       -0.0541
     62 H           9.2269    3.8309    8.4063 H       1  UNL1        0.0623
     63 C          10.7192    3.5658    9.9145 C.ar    1  UNL1       -0.0498
     64 C          11.8673    3.8899    9.0059 C.3     1  UNL1       -0.0397
     65 H          12.7840    3.4289    9.3650 H       1  UNL1        0.0278
     66 H          12.0236    4.9688    8.9670 H       1  UNL1        0.0278
     67 H          11.6709    3.5453    7.9927 H       1  UNL1        0.0278
     68 C          10.9308    3.2605   11.2480 C.ar    1  UNL1       -0.0541
     69 H          11.9400    3.2364   11.6337 H       1  UNL1        0.0623
     70 C           9.8801    3.0079   12.1187 C.ar    1  UNL1       -0.0274
     71 C          10.1806    2.7263   13.5620 C.3     1  UNL1       -0.0379
     72 H           9.2729    2.4773   14.1055 H       1  UNL1        0.0278
     73 H          10.6452    3.5948   14.0307 H       1  UNL1        0.0278
     74 H          10.8803    1.8967   13.6394 H       1  UNL1        0.0278
@<TRIPOS>BOND
     1    40    37    1
     2    67    64    1
     3    38    37    1
     4    62    61    1
     5    16    13    1
     6    37    39    1
     7    37    36    1
     8    58    57    1
     9     8     6    1
    10    14    13    1
    11    42    41    1
    12    66    64    1
    13    64    65    1
    14    64    63    1
    15    11    10    1
    16    13    15    1
    17    13    12    1
    18    61    63   ar
    19    61    56   ar
    20    57    60    1
    21    57    59    1
    22    57    56    1
    23     6     9    1
    24     6     5    1
    25     6     7    1
    26    41    36   ar
    27    41    43   ar
    28    10    12    2
    29    10     5    1
    30    36    35   ar
    31    63    68   ar
    32    45    44    1
    33    12     2    1
    34    56    55   ar
    35     5     1    1
    36    19    17    1
    37    44    43    1
    38    44    46    1
    39    44    47    1
    40    43    48   ar
    41    18    17    1
    42     2    17    1
    43    35     1    1
    44    35    54   ar
    45    17    20    1
    46    68    69    1
    47    68    70   ar
    48    55    70   ar
    49    55     4    1
    50    34    31    1
    51    70    71    1
    52    48    54   ar
    53    48    49    1
    54    54    50    1
    55     4    30    1
    56    20    21    1
    57    20     3    1
    58    20    22    1
    59     3    23    1
    60    31    30    1
    61    31    33    1
    62    31    32    1
    63    30    28    1
    64    53    50    1
    65    50    51    1
    66    50    52    1
    67    26    24    1
    68    71    74    1
    69    71    73    1
    70    71    72    1
    71    23    28    2
    72    23    24    1
    73    28    29    1
    74    24    25    1
    75    24    27    1
