@<TRIPOS>MOLECULE
1,2,3,4
 61 60 0 0 0
SMALL
GASTEIGER

@<TRIPOS>ATOM
      1 N           9.1156   11.3790    6.2046 N.3     1  UNL1        0.0000
      2 N          10.1386   13.0385    3.3032 N.3     1  UNL1        0.0000
      3 N           7.0026   13.7174    4.9287 N.3     1  UNL1        0.0000
      4 N           9.6798   14.0893    5.8818 N.3     1  UNL1        0.0000
      5 SI          9.8626    9.8503    6.1712 Si      1  UNL1        0.0000
      6 SI          9.7805   13.9475    1.9041 Si      1  UNL1        0.0000
      7 SI          5.6884   13.3235    5.9488 Si      1  UNL1        0.0000
      8 C           9.1294   12.2293    7.3694 C.3     1  UNL1        0.0000
      9 H           9.4651   11.6993    8.2715 H       1  UNL1        0.0000
     10 H           8.1176   12.6200    7.5716 H       1  UNL1        0.0000
     11 C          11.2549   13.4173    4.1407 C.3     1  UNL1        0.0000
     12 H          12.1179   13.7657    3.5522 H       1  UNL1        0.0000
     13 H          11.5895   12.5499    4.7382 H       1  UNL1        0.0000
     14 C           7.5854   15.0378    4.9901 C.3     1  UNL1        0.0000
     15 H           6.8328   15.8156    5.1936 H       1  UNL1        0.0000
     16 H           8.0532   15.2844    4.0217 H       1  UNL1        0.0000
     17 C          10.0837   13.4120    7.1150 C.3     1  UNL1        0.0000
     18 H          10.1052   14.1047    7.9715 H       1  UNL1        0.0000
     19 H          11.0879   12.9970    6.9811 H       1  UNL1        0.0000
     20 C          10.8261   14.5487    5.0983 C.3     1  UNL1        0.0000
     21 H          11.6613   14.8615    5.7455 H       1  UNL1        0.0000
     22 H          10.5276   15.4034    4.4874 H       1  UNL1        0.0000
     23 C           8.6619   15.1187    6.0983 C.3     1  UNL1        0.0000
     24 H           9.1066   16.1259    6.1341 H       1  UNL1        0.0000
     25 H           8.1622   14.9321    7.0519 H       1  UNL1        0.0000
     26 C          11.3546    9.6850    7.3737 C.3     1  UNL1        0.0000
     27 H          11.0351    9.8043    8.4037 H       1  UNL1        0.0000
     28 H          12.1209   10.4296    7.1788 H       1  UNL1        0.0000
     29 H          11.8171    8.7081    7.2915 H       1  UNL1        0.0000
     30 C           8.6743    8.3921    6.5712 C.3     1  UNL1        0.0000
     31 H           7.8324    8.3850    5.8772 H       1  UNL1        0.0000
     32 H           8.2755    8.4635    7.5786 H       1  UNL1        0.0000
     33 H           9.1792    7.4355    6.4870 H       1  UNL1        0.0000
     34 C          10.5206    9.6325    4.3812 C.3     1  UNL1        0.0000
     35 H           9.8614    8.9786    3.8095 H       1  UNL1        0.0000
     36 H          11.5118    9.1912    4.3552 H       1  UNL1        0.0000
     37 H          10.5682   10.6050    3.8821 H       1  UNL1        0.0000
     38 C           7.9111   13.6146    1.6179 C.3     1  UNL1        0.0000
     39 H           7.3941   13.4270    2.5732 H       1  UNL1        0.0000
     40 H           7.7755   12.7551    0.9660 H       1  UNL1        0.0000
     41 H           7.4314   14.4611    1.1342 H       1  UNL1        0.0000
     42 C          10.8349   13.4410    0.3765 C.3     1  UNL1        0.0000
     43 H          10.2100   13.0741   -0.4304 H       1  UNL1        0.0000
     44 H          11.5429   12.6565    0.6242 H       1  UNL1        0.0000
     45 H          11.4030   14.2822   -0.0071 H       1  UNL1        0.0000
     46 C          10.0085   15.8690    1.9348 C.3     1  UNL1        0.0000
     47 H           9.3474   16.3845    2.6275 H       1  UNL1        0.0000
     48 H           9.8198   16.2832    0.9488 H       1  UNL1        0.0000
     49 H          11.0308   16.1294    2.1970 H       1  UNL1        0.0000
     50 C           3.9928   13.6487    5.1110 C.3     1  UNL1        0.0000
     51 H           3.8028   14.7122    5.0002 H       1  UNL1        0.0000
     52 H           3.1855   13.2326    5.7043 H       1  UNL1        0.0000
     53 H           3.9378   13.1990    4.1258 H       1  UNL1        0.0000
     54 C           5.5699   14.3370    7.5915 C.3     1  UNL1        0.0000
     55 H           5.6617   15.4025    7.4002 H       1  UNL1        0.0000
     56 H           6.3269   14.0653    8.3229 H       1  UNL1        0.0000
     57 H           4.6032   14.1810    8.0590 H       1  UNL1        0.0000
     58 C           5.8116   11.4835    6.4761 C.3     1  UNL1        0.0000
     59 H           6.8041   11.0604    6.2911 H       1  UNL1        0.0000
     60 H           5.0825   10.8933    5.9319 H       1  UNL1        0.0000
     61 H           5.5880   11.3665    7.5323 H       1  UNL1        0.0000
@<TRIPOS>BOND
     1    43    42    1
     2    45    42    1
     3    42    44    1
     4    42     6    1
     5    48    46    1
     6    40    38    1
     7    41    38    1
     8    38     6    1
     9    38    39    1
    10     6    46    1
    11     6     2    1
    12    46    49    1
    13    46    47    1
    14     2    11    1
    15    12    11    1
    16    35    34    1
    17    37    34    1
    18    16    14    1
    19    53    50    1
    20    11    13    1
    21    11    20    1
    22    36    34    1
    23    34     5    1
    24    22    20    1
    25     3    14    1
    26     3     7    1
    27    14    15    1
    28    14    23    1
    29    51    50    1
    30    20    21    1
    31    20     4    1
    32    50    52    1
    33    50     7    1
    34    31    30    1
    35     4    23    1
    36     4    17    1
    37    60    58    1
    38     7    58    1
    39     7    54    1
    40    23    24    1
    41    23    25    1
    42     5     1    1
    43     5    30    1
    44     5    26    1
    45     1     8    1
    46    59    58    1
    47    58    61    1
    48    33    30    1
    49    30    32    1
    50    19    17    1
    51    17     8    1
    52    17    18    1
    53    28    26    1
    54    29    26    1
    55     8    10    1
    56     8     9    1
    57    26    27    1
    58    55    54    1
    59    54    57    1
    60    54    56    1
