@<TRIPOS>MOLECULE
1,2,3,4
 61 60 0 0 0
SMALL
GASTEIGER

@<TRIPOS>ATOM
      1 N           2.0721   12.1221    3.3132 N.3     1  UNL1        0.0000
      2 N           5.4860   13.1239    3.2160 N.3     1  UNL1        0.0000
      3 N           3.1676   15.5315    2.7633 N.3     1  UNL1        0.0000
      4 N           3.4386   13.9033    5.0543 N.3     1  UNL1        0.0000
      5 SI          2.4401   10.4505    3.3356 Si      1  UNL1        0.0000
      6 SI          6.8390   14.0415    2.7258 Si      1  UNL1        0.0000
      7 SI          1.8711   16.2683    1.9394 Si      1  UNL1        0.0000
      8 C           1.3855   12.7056    4.4470 C.3     1  UNL1        0.0000
      9 H           0.6142   12.0344    4.8562 H       1  UNL1        0.0000
     10 H           0.8781   13.6389    4.1446 H       1  UNL1        0.0000
     11 C           5.4481   12.5734    4.5514 C.3     1  UNL1        0.0000
     12 H           6.4537   12.3418    4.9355 H       1  UNL1        0.0000
     13 H           4.8753   11.6311    4.5538 H       1  UNL1        0.0000
     14 C           3.7069   16.0836    3.9808 C.3     1  UNL1        0.0000
     15 H           3.4708   17.1506    4.0962 H       1  UNL1        0.0000
     16 H           4.8053   15.9862    3.9811 H       1  UNL1        0.0000
     17 C           2.3854   13.0345    5.5787 C.3     1  UNL1        0.0000
     18 H           1.8685   13.4961    6.4357 H       1  UNL1        0.0000
     19 H           2.8276   12.0943    5.9145 H       1  UNL1        0.0000
     20 C           4.7789   13.5613    5.5347 C.3     1  UNL1        0.0000
     21 H           4.7480   13.1387    6.5518 H       1  UNL1        0.0000
     22 H           5.3923   14.4659    5.5613 H       1  UNL1        0.0000
     23 C           3.1290   15.3258    5.1935 C.3     1  UNL1        0.0000
     24 H           3.5118   15.7349    6.1433 H       1  UNL1        0.0000
     25 H           2.0413   15.4581    5.1729 H       1  UNL1        0.0000
     26 C           1.0542    9.3514    2.5833 C.3     1  UNL1        0.0000
     27 H           1.2150    9.1880    1.5243 H       1  UNL1        0.0000
     28 H           0.0728    9.8005    2.7048 H       1  UNL1        0.0000
     29 H           1.0292    8.3778    3.0620 H       1  UNL1        0.0000
     30 C           4.0791   10.2232    2.3616 C.3     1  UNL1        0.0000
     31 H           4.5527   11.1884    2.1274 H       1  UNL1        0.0000
     32 H           3.9035    9.6956    1.4311 H       1  UNL1        0.0000
     33 H           4.7923    9.6310    2.9278 H       1  UNL1        0.0000
     34 C           2.7241    9.6302    5.0649 C.3     1  UNL1        0.0000
     35 H           3.6175    9.9801    5.5770 H       1  UNL1        0.0000
     36 H           2.8250    8.5549    4.9551 H       1  UNL1        0.0000
     37 H           1.8754    9.8041    5.7211 H       1  UNL1        0.0000
     38 C           8.3000   12.9392    2.1269 C.3     1  UNL1        0.0000
     39 H           7.9654   12.0611    1.5843 H       1  UNL1        0.0000
     40 H           8.8908   12.5925    2.9697 H       1  UNL1        0.0000
     41 H           8.9632   13.4960    1.4736 H       1  UNL1        0.0000
     42 C           7.6673   15.1405    4.0833 C.3     1  UNL1        0.0000
     43 H           7.0666   16.0022    4.3631 H       1  UNL1        0.0000
     44 H           8.6225   15.5175    3.7321 H       1  UNL1        0.0000
     45 H           7.8646   14.5670    4.9855 H       1  UNL1        0.0000
     46 C           6.2755   15.2313    1.3368 C.3     1  UNL1        0.0000
     47 H           6.2852   14.7452    0.3633 H       1  UNL1        0.0000
     48 H           6.9479   16.0807    1.2761 H       1  UNL1        0.0000
     49 H           5.2656   15.6088    1.5196 H       1  UNL1        0.0000
     50 C           2.4026   16.9857    0.2366 C.3     1  UNL1        0.0000
     51 H           2.9646   17.9071    0.3555 H       1  UNL1        0.0000
     52 H           1.5384   17.2104   -0.3801 H       1  UNL1        0.0000
     53 H           3.0315   16.2832   -0.3146 H       1  UNL1        0.0000
     54 C           0.4816   14.9528    1.6978 C.3     1  UNL1        0.0000
     55 H           0.8808   13.9485    1.8740 H       1  UNL1        0.0000
     56 H           0.0852   14.9845    0.6877 H       1  UNL1        0.0000
     57 H          -0.3566   15.1089    2.3726 H       1  UNL1        0.0000
     58 C           1.0724   17.7350    2.8883 C.3     1  UNL1        0.0000
     59 H           1.7817   18.5464    3.0103 H       1  UNL1        0.0000
     60 H           0.7295   17.4455    3.8771 H       1  UNL1        0.0000
     61 H           0.2202   18.1301    2.3474 H       1  UNL1        0.0000
@<TRIPOS>BOND
     1    52    50    1
     2    53    50    1
     3    50    51    1
     4    50     7    1
     5    47    46    1
     6    56    54    1
     7    48    46    1
     8    46    49    1
     9    46     6    1
    10    32    30    1
    11    41    38    1
    12    27    26    1
    13    39    38    1
    14    54    55    1
    15    54     7    1
    16    54    57    1
    17     7     3    1
    18     7    58    1
    19    38     6    1
    20    38    40    1
    21    31    30    1
    22    61    58    1
    23    30    33    1
    24    30     5    1
    25    26    28    1
    26    26    29    1
    27    26     5    1
    28     6     2    1
    29     6    42    1
    30     3    14    1
    31    58    59    1
    32    58    60    1
    33     2    11    1
    34     1     5    1
    35     1     8    1
    36     5    34    1
    37    44    42    1
    38    14    16    1
    39    14    15    1
    40    14    23    1
    41    42    43    1
    42    42    45    1
    43    10     8    1
    44     8     9    1
    45     8    17    1
    46    11    13    1
    47    11    12    1
    48    11    20    1
    49    36    34    1
    50     4    23    1
    51     4    20    1
    52     4    17    1
    53    34    35    1
    54    34    37    1
    55    25    23    1
    56    23    24    1
    57    20    22    1
    58    20    21    1
    59    17    19    1
    60    17    18    1
