@<TRIPOS>MOLECULE
1,2,3,4
 40 40 0 0 0
SMALL
GASTEIGER

@<TRIPOS>ATOM
      1 N           2.4023   12.8295    6.2791 N.3     1  UNL1       -0.2378
      2 N           4.6083   12.6818    4.4085 N.3     1  UNL1       -0.3029
      3 N           2.0290   12.2432    2.9488 N.3     1  UNL1       -0.3029
      4 N          -0.0838   13.1284    4.9841 N.3     1  UNL1       -0.3029
      5 C           5.8282   13.2807    3.8693 C.3     1  UNL1       -0.0127
      6 H           6.0361   14.2170    4.3867 H       1  UNL1        0.0391
      7 H           5.7023   13.4982    2.8088 H       1  UNL1        0.0391
      8 H           6.6984   12.6173    3.9905 H       1  UNL1        0.0391
      9 C           2.4663   12.5071    1.5807 C.3     1  UNL1       -0.0127
     10 H           3.4978   12.8490    1.5796 H       1  UNL1        0.0391
     11 H           1.8579   13.2968    1.1441 H       1  UNL1        0.0391
     12 H           2.3860   11.6082    0.9490 H       1  UNL1        0.0391
     13 C          -1.2605   13.9006    4.6047 C.3     1  UNL1       -0.0127
     14 H          -1.2229   14.8867    5.0665 H       1  UNL1        0.0391
     15 H          -2.1916   13.4027    4.9198 H       1  UNL1        0.0391
     16 H          -1.2865   14.0313    3.5248 H       1  UNL1        0.0391
     17 C           3.5455   12.0260    6.6052 C.3     1  UNL1        0.0268
     18 H           3.3510   10.9430    6.4129 H       1  UNL1        0.0453
     19 H           3.7920   12.0808    7.6905 H       1  UNL1        0.0453
     20 C           4.8063   12.4537    5.8479 C.3     1  UNL1        0.0128
     21 H           5.5923   11.6947    6.0098 H       1  UNL1        0.0439
     22 H           5.1482   13.3973    6.2805 H       1  UNL1        0.0439
     23 C           4.3052   11.4408    3.6869 C.3     1  UNL1        0.0114
     24 H           4.7570   10.5758    4.1974 H       1  UNL1        0.0439
     25 H           4.7589   11.4957    2.6942 H       1  UNL1        0.0439
     26 C           2.8069   11.1477    3.5289 C.3     1  UNL1        0.0114
     27 H           2.7137   10.2371    2.9072 H       1  UNL1        0.0439
     28 H           2.3953   10.9378    4.5114 H       1  UNL1        0.0439
     29 C           0.6035   11.8954    2.9206 C.3     1  UNL1        0.0114
     30 H           0.4587   10.9150    2.4314 H       1  UNL1        0.0439
     31 H           0.0980   12.6478    2.3111 H       1  UNL1        0.0439
     32 C          -0.0835   11.8398    4.2900 C.3     1  UNL1        0.0114
     33 H          -1.1145   11.4821    4.1318 H       1  UNL1        0.0439
     34 H           0.4185   11.1044    4.9150 H       1  UNL1        0.0439
     35 C          -0.0541   12.9636    6.4425 C.3     1  UNL1        0.0128
     36 H          -0.9177   12.3700    6.7904 H       1  UNL1        0.0439
     37 H          -0.1283   13.9632    6.8823 H       1  UNL1        0.0439
     38 C           1.2419   12.3112    6.9424 C.3     1  UNL1        0.0268
     39 H           1.2821   12.4616    8.0460 H       1  UNL1        0.0453
     40 H           1.1709   11.2030    6.8164 H       1  UNL1        0.0453
@<TRIPOS>BOND
     1    12     9    1
     2    11     9    1
     3    10     9    1
     4     9     3    1
     5    31    29    1
     6    30    29    1
     7    25    23    1
     8     7     5    1
     9    27    26    1
    10    29     3    1
    11    29    32    1
    12     3    26    1
    13    16    13    1
    14    26    23    1
    15    26    28    1
    16    23    24    1
    17    23     2    1
    18     5     8    1
    19     5     6    1
    20     5     2    1
    21    33    32    1
    22    32    34    1
    23    32     4    1
    24     2    20    1
    25    13    15    1
    26    13     4    1
    27    13    14    1
    28     4    35    1
    29    20    21    1
    30    20    22    1
    31    20    17    1
    32     1    17    1
    33     1    38    1
    34    18    17    1
    35    35    36    1
    36    35    37    1
    37    35    38    1
    38    17    19    1
    39    40    38    1
    40    38    39    1
