@<TRIPOS>MOLECULE
2,7,10,13
 87 91 0 0 0
SMALL
GASTEIGER

@<TRIPOS>ATOM
      1 SI          4.2685    8.6955   16.0295 Si      1  UNL1        0.0000
      2 N           5.5309    9.7502    8.7699 N.pl3   1  UNL1        0.0000
      3 C           6.4030   10.4909    8.0127 C.ar    1  UNL1        0.0000
      4 N           6.7657    8.3301    7.5864 N.pl3   1  UNL1        0.0000
      5 C           6.5599   11.8645    7.8913 C.ar    1  UNL1        0.0000
      6 H           5.9581   12.5399    8.4714 H       1  UNL1        0.0000
      7 N           3.8810    8.0764    9.8848 N.3     1  UNL1        0.0000
      8 C           7.5449   12.3117    7.0354 C.ar    1  UNL1        0.0000
      9 H           7.7112   13.3725    6.9351 H       1  UNL1        0.0000
     10 N           2.9634   10.7000    9.7887 N.3     1  UNL1        0.0000
     11 C           8.3438   11.4277    6.3077 C.ar    1  UNL1        0.0000
     12 H           9.1086   11.8243    5.6568 H       1  UNL1        0.0000
     13 N           3.7803    9.9630   12.1251 N.pl3   1  UNL1        0.0000
     14 C           8.1870   10.0595    6.4040 C.ar    1  UNL1        0.0000
     15 H           8.8147    9.3854    5.8415 H       1  UNL1        0.0000
     16 C           7.2045    9.5994    7.2660 C.ar    1  UNL1        0.0000
     17 C           7.3924    7.0819    7.2482 C.3     1  UNL1        0.0000
     18 H           6.6552    6.3808    6.8515 H       1  UNL1        0.0000
     19 H           7.8526    6.6650    8.1476 H       1  UNL1        0.0000
     20 H           8.1571    7.2610    6.4972 H       1  UNL1        0.0000
     21 C           5.7823    8.4906    8.4990 C.3     1  UNL1        0.0000
     22 C           4.9826    7.4260    9.1601 C.3     1  UNL1        0.0000
     23 H           5.6379    6.9244    9.8769 H       1  UNL1        0.0000
     24 H           4.6172    6.6910    8.4305 H       1  UNL1        0.0000
     25 C           3.3040    7.1764   10.8796 C.3     1  UNL1        0.0000
     26 H           2.7332    7.7717   11.5911 H       1  UNL1        0.0000
     27 H           4.0897    6.6610   11.4248 H       1  UNL1        0.0000
     28 C           2.3734    6.2454   10.0946 C.3     1  UNL1        0.0000
     29 H           2.9223    5.3830    9.7187 H       1  UNL1        0.0000
     30 H           1.5581    5.8773   10.7131 H       1  UNL1        0.0000
     31 C           1.8731    7.1256    8.9384 C.3     1  UNL1        0.0000
     32 H           0.8277    7.3972    9.0750 H       1  UNL1        0.0000
     33 H           1.9550    6.6082    7.9837 H       1  UNL1        0.0000
     34 C           2.7662    8.3875    8.9760 C.3     1  UNL1        0.0000
     35 H           3.1737    8.6356    7.9954 H       1  UNL1        0.0000
     36 C           2.0099    9.6127    9.5044 C.3     1  UNL1        0.0000
     37 H           1.5119    9.3347   10.4355 H       1  UNL1        0.0000
     38 C           1.0098   10.1670    8.4637 C.3     1  UNL1        0.0000
     39 H           0.9147    9.4785    7.6252 H       1  UNL1        0.0000
     40 H           0.0188   10.2978    8.8957 H       1  UNL1        0.0000
     41 C           1.6051   11.5086    8.0110 C.3     1  UNL1        0.0000
     42 H           1.0605   12.3437    8.4486 H       1  UNL1        0.0000
     43 H           1.5813   11.6248    6.9301 H       1  UNL1        0.0000
     44 C           3.0386   11.4646    8.5452 C.3     1  UNL1        0.0000
     45 H           3.6884   10.9300    7.8556 H       1  UNL1        0.0000
     46 H           3.4719   12.4420    8.7389 H       1  UNL1        0.0000
     47 C           2.4789   11.5317   10.8952 C.3     1  UNL1        0.0000
     48 H           1.4154   11.7772   10.7982 H       1  UNL1        0.0000
     49 H           3.0620   12.4586   10.8709 H       1  UNL1        0.0000
     50 C           2.7665   10.8358   12.1852 C.3     1  UNL1        0.0000
     51 C           2.0913   11.0852   13.3674 C.2     1  UNL1        0.0000
     52 H           1.2817   11.7981   13.3832 H       1  UNL1        0.0000
     53 C           2.4959   10.4374   14.5232 C.2     1  UNL1        0.0000
     54 H           1.9947   10.6380   15.4562 H       1  UNL1        0.0000
     55 C           3.5619    9.5400   14.4759 C.2     1  UNL1        0.0000
     56 C           4.1594    9.3510   13.2411 C.2     1  UNL1        0.0000
     57 H           4.9979    8.6931   13.1062 H       1  UNL1        0.0000
     58 C           5.5086    9.9445   16.8036 C.3     1  UNL1        0.0000
     59 H           5.8672    9.5593   17.7642 H       1  UNL1        0.0000
     60 C           4.8552   11.3010   17.0658 C.3     1  UNL1        0.0000
     61 H           5.5752   11.9850   17.5114 H       1  UNL1        0.0000
     62 H           4.0100   11.2103   17.7443 H       1  UNL1        0.0000
     63 H           4.5083   11.7400   16.1336 H       1  UNL1        0.0000
     64 C           6.7205   10.1328   15.8918 C.3     1  UNL1        0.0000
     65 H           7.4132   10.8512   16.3264 H       1  UNL1        0.0000
     66 H           6.4199   10.5116   14.9187 H       1  UNL1        0.0000
     67 H           7.2532    9.1979   15.7447 H       1  UNL1        0.0000
     68 C           5.1896    7.1041   15.4649 C.3     1  UNL1        0.0000
     69 H           5.9065    7.4257   14.7047 H       1  UNL1        0.0000
     70 C           5.9989    6.4424   16.5792 C.3     1  UNL1        0.0000
     71 H           6.5965    5.6261   16.1765 H       1  UNL1        0.0000
     72 H           5.3477    6.0356   17.3486 H       1  UNL1        0.0000
     73 H           6.6724    7.1551   17.0459 H       1  UNL1        0.0000
     74 C           4.2745    6.0724   14.8070 C.3     1  UNL1        0.0000
     75 H           4.8664    5.2949   14.3261 H       1  UNL1        0.0000
     76 H           3.6395    6.5370   14.0564 H       1  UNL1        0.0000
     77 H           3.6394    5.5946   15.5492 H       1  UNL1        0.0000
     78 C           2.7699    8.4354   17.2275 C.3     1  UNL1        0.0000
     79 H           2.4129    9.4331   17.5052 H       1  UNL1        0.0000
     80 C           1.5939    7.7060   16.5783 C.3     1  UNL1        0.0000
     81 H           0.7334    7.7042   17.2464 H       1  UNL1        0.0000
     82 H           1.8531    6.6734   16.3649 H       1  UNL1        0.0000
     83 H           1.3041    8.1837   15.6460 H       1  UNL1        0.0000
     84 C           3.1581    7.7303   18.5257 C.3     1  UNL1        0.0000
     85 H           2.3213    7.7245   19.2233 H       1  UNL1        0.0000
     86 H           3.9966    8.2292   19.0032 H       1  UNL1        0.0000
     87 H           3.4375    6.6985   18.3318 H       1  UNL1        0.0000
@<TRIPOS>BOND
     1    12    11    1
     2    15    14    1
     3    11    14   ar
     4    11     8   ar
     5    14    16   ar
     6    20    17    1
     7    18    17    1
     8    43    41    1
     9     9     8    1
    10     8     5   ar
    11    17     4    1
    12    17    19    1
    13    16     4    1
    14    16     3   ar
    15     4    21    1
    16    39    38    1
    17    45    44    1
    18     5     3   ar
    19     5     6    1
    20    33    31    1
    21    35    34    1
    22    41    42    1
    23    41    38    1
    24    41    44    1
    25     3     2    1
    26    24    22    1
    27    38    40    1
    28    38    36    1
    29    21     2    1
    30    21    22    1
    31    44    46    1
    32    44    10    1
    33    31    34    1
    34    31    32    1
    35    31    28    1
    36    34    36    1
    37    34     7    1
    38    22    23    1
    39    22     7    1
    40    36    10    1
    41    36    37    1
    42    29    28    1
    43    10    47    1
    44     7    25    1
    45    28    30    1
    46    28    25    1
    47    48    47    1
    48    49    47    1
    49    25    27    1
    50    25    26    1
    51    47    50    1
    52    13    50    1
    53    13    56    1
    54    50    51    1
    55    57    56    1
    56    56    55    2
    57    51    52    1
    58    51    53    2
    59    76    74    1
    60    75    74    1
    61    55    53    1
    62    55     1    1
    63    53    54    1
    64    69    68    1
    65    74    68    1
    66    74    77    1
    67    66    64    1
    68    68     1    1
    69    68    70    1
    70    83    80    1
    71    67    64    1
    72    64    65    1
    73    64    58    1
    74     1    58    1
    75     1    78    1
    76    63    60    1
    77    71    70    1
    78    82    80    1
    79    80    78    1
    80    80    81    1
    81    70    73    1
    82    70    72    1
    83    58    60    1
    84    58    59    1
    85    60    61    1
    86    60    62    1
    87    78    79    1
    88    78    84    1
    89    87    84    1
    90    84    86    1
    91    84    85    1
