@<TRIPOS>MOLECULE
1,2,3,4
 84 86 0 0 0
SMALL
GASTEIGER

@<TRIPOS>ATOM
      1 N          10.8043   -1.2073   33.0591 N.pl3   1  UNL1       -0.2372
      2 N           9.9513    1.3409   33.9848 N.pl3   1  UNL1       -0.2503
      3 N           7.4349    1.0211   34.8017 N.pl3   1  UNL1       -0.2503
      4 N           7.3308    0.2982   32.1410 N.pl3   1  UNL1       -0.2372
      5 C          11.3601   -0.4524   32.1144 C.3     1  UNL1        0.0968
      6 C          12.3719   -1.0564   31.1648 C.3     1  UNL1       -0.0359
      7 H          12.4153   -2.1372   31.2755 H       1  UNL1        0.0255
      8 H          13.3650   -0.6510   31.3514 H       1  UNL1        0.0255
      9 H          12.0998   -0.8079   30.1408 H       1  UNL1        0.0255
     10 C          11.0832    0.9016   31.9367 C.2     1  UNL1       -0.0387
     11 H          11.5018    1.3546   31.0497 H       1  UNL1        0.0610
     12 C          10.4844    1.7783   32.8603 C.2     1  UNL1        0.0208
     13 C          10.5915    3.2491   32.5243 C.3     1  UNL1       -0.0253
     14 H           9.6126    3.7215   32.5483 H       1  UNL1        0.0290
     15 H          11.0047    3.3784   31.5288 H       1  UNL1        0.0290
     16 H          11.2342    3.7628   33.2373 H       1  UNL1        0.0290
     17 C           9.4542    2.2879   34.9696 C.3     1  UNL1        0.0624
     18 H           9.0501    3.1803   34.4685 H       1  UNL1        0.0537
     19 C           8.2735    1.6809   35.7864 C.3     1  UNL1        0.0624
     20 H           8.6670    0.9237   36.4873 H       1  UNL1        0.0537
     21 C           6.1518    0.7683   34.8523 C.2     1  UNL1        0.0208
     22 C           5.2857    0.9300   36.0809 C.3     1  UNL1       -0.0253
     23 H           4.9684    1.9655   36.1987 H       1  UNL1        0.0290
     24 H           5.8244    0.6146   36.9712 H       1  UNL1        0.0290
     25 H           4.3941    0.3164   35.9865 H       1  UNL1        0.0290
     26 C           5.4783    0.3948   33.6690 C.2     1  UNL1       -0.0387
     27 H           4.4081    0.2629   33.7393 H       1  UNL1        0.0610
     28 C           5.0418    0.3456   31.2358 C.3     1  UNL1       -0.0359
     29 H           5.5510    0.5095   30.2888 H       1  UNL1        0.0255
     30 H           4.2724    1.1038   31.3651 H       1  UNL1        0.0255
     31 H           4.5486   -0.6258   31.2015 H       1  UNL1        0.0255
     32 C           6.0222    0.3606   32.3896 C.3     1  UNL1        0.0968
     33 C          10.5517    2.7405   35.9412 C.3     1  UNL1       -0.0309
     34 H          11.4214    3.0960   35.3855 H       1  UNL1        0.0284
     35 H          10.8719    1.8886   36.5443 H       1  UNL1        0.0284
     36 C          10.0063    3.8481   36.8361 C.3     1  UNL1       -0.0512
     37 H          10.7672    4.1578   37.5555 H       1  UNL1        0.0266
     38 H           9.7543    4.7168   36.2229 H       1  UNL1        0.0266
     39 C           8.7616    3.3704   37.5765 C.3     1  UNL1       -0.0512
     40 H           9.0431    2.5768   38.2728 H       1  UNL1        0.0266
     41 H           8.3432    4.1924   38.1619 H       1  UNL1        0.0266
     42 C           7.6920    2.8316   36.6242 C.3     1  UNL1       -0.0309
     43 H           7.3398    3.6253   35.9607 H       1  UNL1        0.0284
     44 H           6.8512    2.4968   37.2259 H       1  UNL1        0.0284
     45 C          11.5529   -2.2952   33.5645 C.ar    1  UNL1        0.0546
     46 C          13.2086   -0.6195   34.5034 C.3     1  UNL1       -0.0379
     47 H          13.7467   -0.5435   35.4463 H       1  UNL1        0.0278
     48 H          12.3799    0.0866   34.5079 H       1  UNL1        0.0278
     49 H          13.8924   -0.3294   33.7049 H       1  UNL1        0.0278
     50 C          12.7205   -2.0249   34.2984 C.ar    1  UNL1       -0.0274
     51 C          13.4265   -3.0737   34.8674 C.ar    1  UNL1       -0.0541
     52 H          14.3184   -2.8523   35.4380 H       1  UNL1        0.0623
     53 C          13.0204   -4.3910   34.7283 C.ar    1  UNL1       -0.0498
     54 C          13.7763   -5.5119   35.3761 C.3     1  UNL1       -0.0397
     55 H          14.7954   -5.2117   35.6084 H       1  UNL1        0.0278
     56 H          13.8050   -6.3853   34.7275 H       1  UNL1        0.0278
     57 H          13.2863   -5.8022   36.3062 H       1  UNL1        0.0278
     58 C          11.8721   -4.6444   33.9922 C.ar    1  UNL1       -0.0541
     59 H          11.5429   -5.6668   33.8646 H       1  UNL1        0.0623
     60 C          11.1373   -3.6249   33.4096 C.ar    1  UNL1       -0.0274
     61 C           9.9108   -3.9488   32.6138 C.3     1  UNL1       -0.0379
     62 H           9.0545   -3.4121   33.0311 H       1  UNL1        0.0278
     63 H           9.7026   -5.0156   32.6523 H       1  UNL1        0.0278
     64 H          10.0394   -3.6624   31.5694 H       1  UNL1        0.0278
     65 C           7.8434    0.8465   30.9523 C.ar    1  UNL1        0.0546
     66 C           8.5188    0.0597   30.0087 C.ar    1  UNL1       -0.0274
     67 C           8.5688   -1.4298   30.1751 C.3     1  UNL1       -0.0379
     68 H           7.5751   -1.8612   30.0440 H       1  UNL1        0.0278
     69 H           8.9181   -1.6840   31.1823 H       1  UNL1        0.0278
     70 H           9.2363   -1.8754   29.4402 H       1  UNL1        0.0278
     71 C           9.1128    0.6616   28.9105 C.ar    1  UNL1       -0.0541
     72 H           9.6316    0.0421   28.1912 H       1  UNL1        0.0623
     73 C           9.0491    2.0307   28.7074 C.ar    1  UNL1       -0.0498
     74 C           9.7001    2.6783   27.5215 C.3     1  UNL1       -0.0397
     75 H          10.1924    1.9382   26.8957 H       1  UNL1        0.0278
     76 H          10.4423    3.4079   27.8447 H       1  UNL1        0.0278
     77 H           8.9598    3.2040   26.9193 H       1  UNL1        0.0278
     78 C           8.3567    2.7984   29.6342 C.ar    1  UNL1       -0.0541
     79 H           8.2902    3.8678   29.4854 H       1  UNL1        0.0623
     80 C           7.7511    2.2355   30.7436 C.ar    1  UNL1       -0.0274
     81 C           7.0178    3.1036   31.7239 C.3     1  UNL1       -0.0379
     82 H           7.1926    2.7552   32.7423 H       1  UNL1        0.0278
     83 H           5.9437    3.0656   31.5421 H       1  UNL1        0.0278
     84 H           7.3351    4.1406   31.6280 H       1  UNL1        0.0278
@<TRIPOS>BOND
     1    75    74    1
     2    77    74    1
     3    74    76    1
     4    74    73    1
     5    72    71    1
     6    73    71   ar
     7    73    78   ar
     8    71    66   ar
     9    70    67    1
    10    79    78    1
    11    78    80   ar
    12    66    67    1
    13    66    65   ar
    14    68    67    1
    15     9     6    1
    16    67    69    1
    17    29    28    1
    18    80    65   ar
    19    80    81    1
    20    65     4    1
    21    11    10    1
    22     6     7    1
    23     6     8    1
    24     6     5    1
    25    31    28    1
    26    28    30    1
    27    28    32    1
    28    15    13    1
    29    83    81    1
    30    64    61    1
    31    84    81    1
    32    81    82    1
    33    10     5    1
    34    10    12    2
    35     5     1    1
    36     4    32    1
    37    32    26    1
    38    13    14    1
    39    13    12    1
    40    13    16    1
    41    61    63    1
    42    61    62    1
    43    61    60    1
    44    12     2    1
    45     1    45    1
    46    60    45   ar
    47    60    58   ar
    48    45    50   ar
    49    26    27    1
    50    26    21    2
    51    49    46    1
    52    59    58    1
    53     2    17    1
    54    58    53   ar
    55    50    46    1
    56    50    51   ar
    57    18    17    1
    58    46    48    1
    59    46    47    1
    60    56    54    1
    61    53    51   ar
    62    53    54    1
    63     3    21    1
    64     3    19    1
    65    21    22    1
    66    51    52    1
    67    17    19    1
    68    17    33    1
    69    54    55    1
    70    54    57    1
    71    34    33    1
    72    19    20    1
    73    19    42    1
    74    33    35    1
    75    33    36    1
    76    43    42    1
    77    25    22    1
    78    22    23    1
    79    22    24    1
    80    38    36    1
    81    42    44    1
    82    42    39    1
    83    36    37    1
    84    36    39    1
    85    39    41    1
    86    39    40    1
