@<TRIPOS>MOLECULE
1,2,3,4
 84 86 0 0 0
SMALL
GASTEIGER

@<TRIPOS>ATOM
      1 N           9.1635    2.6770    5.3330 N.pl3   1  UNL1       -0.2372
      2 N          11.7543    2.8859    4.0577 N.pl3   1  UNL1       -0.2503
      3 N          11.6631    4.8901    2.2165 N.pl3   1  UNL1       -0.2503
      4 N           9.6936    3.3028    1.1579 N.pl3   1  UNL1       -0.2372
      5 C           9.4596    1.3891    5.2228 C.3     1  UNL1        0.0968
      6 C           8.6644    0.3594    5.9972 C.3     1  UNL1       -0.0359
      7 H           9.2745   -0.0754    6.7874 H       1  UNL1        0.0255
      8 H           8.3606   -0.4465    5.3320 H       1  UNL1        0.0255
      9 H           7.7822    0.8052    6.4504 H       1  UNL1        0.0255
     10 C          10.4866    0.8931    4.4176 C.2     1  UNL1       -0.0387
     11 H          10.4981   -0.1799    4.2905 H       1  UNL1        0.0610
     12 C          11.6038    1.5831    3.9101 C.2     1  UNL1        0.0208
     13 C          12.6627    0.7094    3.2709 C.3     1  UNL1       -0.0253
     14 H          13.6070    0.7781    3.8075 H       1  UNL1        0.0290
     15 H          12.8262    1.0171    2.2401 H       1  UNL1        0.0290
     16 H          12.3432   -0.3281    3.2634 H       1  UNL1        0.0290
     17 C          13.0035    3.5104    3.6469 C.3     1  UNL1        0.0624
     18 H          13.4485    2.9571    2.8081 H       1  UNL1        0.0537
     19 C          12.7873    4.9618    3.1285 C.3     1  UNL1        0.0624
     20 H          12.5528    5.6283    3.9797 H       1  UNL1        0.0537
     21 C          11.2594    5.8213    1.3858 C.2     1  UNL1        0.0208
     22 C          11.8106    7.2287    1.3406 C.3     1  UNL1       -0.0253
     23 H          12.6312    7.3008    0.6270 H       1  UNL1        0.0290
     24 H          12.1610    7.5373    2.3228 H       1  UNL1        0.0290
     25 H          11.0290    7.9138    1.0233 H       1  UNL1        0.0290
     26 C          10.3130    5.4864    0.3903 C.2     1  UNL1       -0.0387
     27 H          10.1121    6.2332   -0.3645 H       1  UNL1        0.0610
     28 C           9.7592    4.2224    0.1964 C.3     1  UNL1        0.0968
     29 C          14.0186    3.5448    4.7974 C.3     1  UNL1       -0.0309
     30 H          14.1296    2.5464    5.2249 H       1  UNL1        0.0284
     31 H          13.6426    4.2003    5.5861 H       1  UNL1        0.0284
     32 C          15.3614    4.0508    4.2805 C.3     1  UNL1       -0.0512
     33 H          16.0787    4.1138    5.1015 H       1  UNL1        0.0266
     34 H          15.7551    3.3421    3.5478 H       1  UNL1        0.0266
     35 C           9.1429    3.9336   -1.1555 C.3     1  UNL1       -0.0359
     36 H           9.8023    4.2469   -1.9620 H       1  UNL1        0.0255
     37 H           8.2122    4.4929   -1.2502 H       1  UNL1        0.0255
     38 H           8.9225    2.8737   -1.2612 H       1  UNL1        0.0255
     39 C          15.2055    5.4198    3.6255 C.3     1  UNL1       -0.0512
     40 H          16.1599    5.7335    3.1966 H       1  UNL1        0.0266
     41 H          14.9272    6.1522    4.3872 H       1  UNL1        0.0266
     42 C          14.1350    5.4086    2.5344 C.3     1  UNL1       -0.0309
     43 H          14.0646    6.4058    2.1064 H       1  UNL1        0.0284
     44 H          14.4189    4.7223    1.7330 H       1  UNL1        0.0284
     45 C           8.5083    3.1328    6.4975 C.ar    1  UNL1        0.0546
     46 C           7.1937    3.6185    6.4574 C.ar    1  UNL1       -0.0274
     47 C           6.4325    3.6146    5.1662 C.3     1  UNL1       -0.0379
     48 H           6.3622    2.6050    4.7585 H       1  UNL1        0.0278
     49 H           6.9426    4.2619    4.4434 H       1  UNL1        0.0278
     50 H           5.4248    3.9957    5.3171 H       1  UNL1        0.0278
     51 C           6.6109    4.1056    7.6152 C.ar    1  UNL1       -0.0541
     52 H           5.5946    4.4739    7.5781 H       1  UNL1        0.0623
     53 C           7.2961    4.1308    8.8225 C.ar    1  UNL1       -0.0498
     54 C           6.6486    4.6920   10.0527 C.3     1  UNL1       -0.0397
     55 H           5.6124    4.3671   10.1268 H       1  UNL1        0.0278
     56 H           6.6547    5.7818   10.0125 H       1  UNL1        0.0278
     57 H           7.1797    4.3813   10.9492 H       1  UNL1        0.0278
     58 C           8.5969    3.6536    8.8471 C.ar    1  UNL1       -0.0541
     59 H           9.1498    3.6712    9.7765 H       1  UNL1        0.0623
     60 C           9.2133    3.1512    7.7114 C.ar    1  UNL1       -0.0274
     61 C          10.6275    2.6529    7.7894 C.3     1  UNL1       -0.0379
     62 H          11.1411    2.7884    6.8379 H       1  UNL1        0.0278
     63 H          10.6458    1.5894    8.0308 H       1  UNL1        0.0278
     64 H          11.1710    3.1813    8.5700 H       1  UNL1        0.0278
     65 C           9.7242    1.9362    0.8642 C.ar    1  UNL1        0.0546
     66 C          11.9752    2.2823   -0.2253 C.3     1  UNL1       -0.0379
     67 H          12.1318    3.0766    0.5064 H       1  UNL1        0.0278
     68 H          11.7503    2.7510   -1.1830 H       1  UNL1        0.0278
     69 H          12.8915    1.7061   -0.3433 H       1  UNL1        0.0278
     70 C          10.8500    1.3921    0.2149 C.ar    1  UNL1       -0.0274
     71 C          10.9323    0.0235    0.0270 C.ar    1  UNL1       -0.0541
     72 H          11.8027   -0.3859   -0.4683 H       1  UNL1        0.0623
     73 C           9.9370   -0.8394    0.4641 C.ar    1  UNL1       -0.0498
     74 C          10.0494   -2.3166    0.2311 C.3     1  UNL1       -0.0397
     75 H          11.0759   -2.6519    0.3659 H       1  UNL1        0.0278
     76 H           9.7496   -2.5614   -0.7886 H       1  UNL1        0.0278
     77 H           9.4068   -2.8674    0.9139 H       1  UNL1        0.0278
     78 C           8.8356   -0.2944    1.1058 C.ar    1  UNL1       -0.0541
     79 H           8.0485   -0.9496    1.4537 H       1  UNL1        0.0623
     80 C           8.7119    1.0704    1.3085 C.ar    1  UNL1       -0.0274
     81 C           7.4960    1.6258    1.9919 C.3     1  UNL1       -0.0379
     82 H           6.8261    0.8207    2.2880 H       1  UNL1        0.0278
     83 H           6.9543    2.2992    1.3260 H       1  UNL1        0.0278
     84 H           7.7891    2.1904    2.8892 H       1  UNL1        0.0278
@<TRIPOS>BOND
     1    36    35    1
     2    38    35    1
     3    37    35    1
     4    68    66    1
     5    35    28    1
     6    76    74    1
     7    72    71    1
     8    27    26    1
     9    69    66    1
    10    66    70    1
    11    66    67    1
    12    71    70   ar
    13    71    73   ar
    14    28    26    1
    15    28     4    1
    16    70    65   ar
    17    74    75    1
    18    74    73    1
    19    74    77    1
    20    26    21    2
    21    73    78   ar
    22    23    22    1
    23    65     4    1
    24    65    80   ar
    25    25    22    1
    26    78    80   ar
    27    78    79    1
    28    80    81    1
    29    83    81    1
    30    22    21    1
    31    22    24    1
    32    21     3    1
    33    44    42    1
    34    81    82    1
    35    81    84    1
    36    43    42    1
    37     3    19    1
    38    15    13    1
    39    42    19    1
    40    42    39    1
    41    18    17    1
    42    19    17    1
    43    19    20    1
    44    40    39    1
    45    16    13    1
    46    13    14    1
    47    13    12    1
    48    34    32    1
    49    39    32    1
    50    39    41    1
    51    17     2    1
    52    17    29    1
    53    12     2    1
    54    12    10    2
    55    32    29    1
    56    32    33    1
    57    11    10    1
    58    10     5    1
    59    49    47    1
    60    48    47    1
    61    29    30    1
    62    29    31    1
    63    47    50    1
    64    47    46    1
    65     5     1    1
    66     5     6    1
    67     8     6    1
    68     1    45    1
    69     6     9    1
    70     6     7    1
    71    46    45   ar
    72    46    51   ar
    73    45    60   ar
    74    62    61    1
    75    52    51    1
    76    51    53   ar
    77    60    61    1
    78    60    58   ar
    79    61    63    1
    80    61    64    1
    81    53    58   ar
    82    53    54    1
    83    58    59    1
    84    56    54    1
    85    54    55    1
    86    54    57    1
