@<TRIPOS>MOLECULE
1,2,3,4
 63 63 0 0 0
SMALL
GASTEIGER

@<TRIPOS>ATOM
      1 N           2.4960    4.0088   10.4107 N.pl3   1  UNL1        0.0000
      2 N           1.8838    3.7102   12.8720 N.pl3   1  UNL1        0.0000
      3 N           4.6292    2.0850   11.4190 N.3     1  UNL1        0.0000
      4 N           3.8059    2.3639   13.9368 N.3     1  UNL1        0.0000
      5 SI          1.8936    2.7916    9.3476 Si      1  UNL1        0.0000
      6 SI          6.1273    2.4864   10.6900 Si      1  UNL1        0.0000
      7 C           1.4848    3.1525   14.1310 C.3     1  UNL1        0.0000
      8 C           2.7680    2.7540   14.8853 C.3     1  UNL1        0.0000
      9 C           4.4634    0.8440   12.1312 C.3     1  UNL1        0.0000
     10 C           3.5333    1.0590   13.3402 C.3     1  UNL1        0.0000
     11 C           5.1087    2.3780   14.5848 C.3     1  UNL1        0.0000
     12 C           5.8263    4.0271    9.6025 C.3     1  UNL1        0.0000
     13 C           6.8482    1.0395    9.6466 C.3     1  UNL1        0.0000
     14 C           7.5576    2.9005   11.9275 C.3     1  UNL1        0.0000
     15 C           3.2591    2.0566    8.2365 C.3     1  UNL1        0.0000
     16 C           1.0953    1.3498   10.3602 C.3     1  UNL1        0.0000
     17 C           0.5014    3.4072    8.1771 C.3     1  UNL1        0.0000
     18 C           0.2591    5.6276   13.0285 C.3     1  UNL1        0.0000
     19 C           1.2030    4.7376   12.2539 C.2     1  UNL1        0.0000
     20 C           1.5312    4.9129   10.9321 C.2     1  UNL1        0.0000
     21 C           1.0044    5.9209   10.0204 C.ar    1  UNL1        0.0000
     22 C          -0.3156    6.3826   10.0506 C.ar    1  UNL1        0.0000
     23 C          -0.7555    7.3304    9.1457 C.ar    1  UNL1        0.0000
     24 C           0.1000    7.8367    8.1819 C.ar    1  UNL1        0.0000
     25 C           1.4024    7.3647    8.1167 C.ar    1  UNL1        0.0000
     26 C           1.8454    6.4189    9.0166 C.ar    1  UNL1        0.0000
     27 H           0.9063    3.8481   14.7587 H       1  UNL1        0.0000
     28 H           0.8434    2.2619   13.9801 H       1  UNL1        0.0000
     29 H           3.1345    3.6286   15.4317 H       1  UNL1        0.0000
     30 H           2.5625    1.9502   15.6137 H       1  UNL1        0.0000
     31 H           5.4245    0.4321   12.4810 H       1  UNL1        0.0000
     32 H           4.0183    0.0684   11.4820 H       1  UNL1        0.0000
     33 H           3.6621    0.2470   14.0799 H       1  UNL1        0.0000
     34 H           2.4976    1.0599   12.9864 H       1  UNL1        0.0000
     35 H           5.8788    2.1235   13.8623 H       1  UNL1        0.0000
     36 H           5.1469    1.6642   15.4240 H       1  UNL1        0.0000
     37 H           5.3154    3.3794   14.9633 H       1  UNL1        0.0000
     38 H           6.5183    4.8236    9.8581 H       1  UNL1        0.0000
     39 H           4.8071    4.3816    9.7661 H       1  UNL1        0.0000
     40 H           5.9541    3.8123    8.5470 H       1  UNL1        0.0000
     41 H           7.8289    1.2912    9.2578 H       1  UNL1        0.0000
     42 H           6.9586    0.1439   10.2503 H       1  UNL1        0.0000
     43 H           6.2169    0.7859    8.8018 H       1  UNL1        0.0000
     44 H           8.4376    3.2587   11.4013 H       1  UNL1        0.0000
     45 H           7.2506    3.6771   12.6225 H       1  UNL1        0.0000
     46 H           7.8677    2.0313   12.5036 H       1  UNL1        0.0000
     47 H           2.8449    1.2759    7.6070 H       1  UNL1        0.0000
     48 H           4.0498    1.6255    8.8377 H       1  UNL1        0.0000
     49 H           3.6979    2.8046    7.5862 H       1  UNL1        0.0000
     50 H           0.3664    0.7903    9.7816 H       1  UNL1        0.0000
     51 H           1.8553    0.6485   10.6957 H       1  UNL1        0.0000
     52 H           0.5856    1.7451   11.2376 H       1  UNL1        0.0000
     53 H           0.1666    2.6054    7.5265 H       1  UNL1        0.0000
     54 H          -0.3594    3.7629    8.7334 H       1  UNL1        0.0000
     55 H           0.8373    4.2236    7.5472 H       1  UNL1        0.0000
     56 H          -1.0172    5.9635   10.7549 H       1  UNL1        0.0000
     57 H          -1.7819    7.6687    9.1846 H       1  UNL1        0.0000
     58 H          -0.2489    8.5788    7.4787 H       1  UNL1        0.0000
     59 H           2.0731    7.7400    7.3562 H       1  UNL1        0.0000
     60 H           2.8564    6.0393    8.9633 H       1  UNL1        0.0000
     61 H           0.6308    5.8056   14.0392 H       1  UNL1        0.0000
     62 H          -0.7314    5.1760   13.1129 H       1  UNL1        0.0000
     63 H           0.1617    6.5900   12.5329 H       1  UNL1        0.0000
@<TRIPOS>BOND
     1    59    25    1
     2    58    24    1
     3    53    17    1
     4    55    17    1
     5    49    15    1
     6    47    15    1
     7    25    24   ar
     8    25    26   ar
     9    17    54    1
    10    17     5    1
    11    24    23   ar
    12    15    48    1
    13    15     5    1
    14    40    12    1
    15    43    13    1
    16    60    26    1
    17    26    21   ar
    18    23    57    1
    19    23    22   ar
    20    41    13    1
    21     5    16    1
    22     5     1    1
    23    12    39    1
    24    12    38    1
    25    12     6    1
    26    13    42    1
    27    13     6    1
    28    50    16    1
    29    21    22   ar
    30    21    20    1
    31    22    56    1
    32    16    51    1
    33    16    52    1
    34     1    20    1
    35     6     3    1
    36     6    14    1
    37    20    19    2
    38    44    14    1
    39     3     9    1
    40    32     9    1
    41    14    46    1
    42    14    45    1
    43     9    31    1
    44     9    10    1
    45    19     2    1
    46    19    18    1
    47    63    18    1
    48     2     7    1
    49    34    10    1
    50    18    62    1
    51    18    61    1
    52    10     4    1
    53    10    33    1
    54    35    11    1
    55     4    11    1
    56     4     8    1
    57    28     7    1
    58     7    27    1
    59     7     8    1
    60    11    37    1
    61    11    36    1
    62     8    29    1
    63     8    30    1
