@<TRIPOS>MOLECULE
1,2,3,5
 61 61 0 0 0
SMALL
GASTEIGER

@<TRIPOS>ATOM
      1 N           3.8513    0.0872   10.1069 N.3     1  UNL1       -0.2333
      2 N           4.8964    2.6602    9.2657 N.3     1  UNL1       -0.2987
      3 N           4.7475    2.5541    6.3542 N.3     1  UNL1       -0.3020
      4 N           1.9461    3.0563    9.2216 N.3     1  UNL1       -0.3071
      5 N           5.2777   -0.1836    6.8319 N.pl3   1  UNL1       -0.2497
      6 C           1.8738   -1.3305   10.3339 C.3     1  UNL1       -0.0458
      7 C           4.1200   -2.3737   10.5008 C.3     1  UNL1       -0.0458
      8 C           3.2728   -0.8986   12.3361 C.3     1  UNL1       -0.0458
      9 C           3.3194   -1.0827   10.8007 C.3     1  UNL1        0.0282
     10 C           5.0730    0.5879   10.7057 C.3     1  UNL1        0.0273
     11 C           5.7900    1.6531    9.8572 C.3     1  UNL1        0.0131
     12 C           5.6623    3.5844    8.4281 C.3     1  UNL1        0.0117
     13 C           5.9540    3.0320    7.0303 C.3     1  UNL1        0.0115
     14 C           4.1682    3.4042   10.2939 C.3     1  UNL1        0.0117
     15 C           2.8885    4.0406    9.7479 C.3     1  UNL1        0.0111
     16 C           1.2766    2.3643   10.3191 C.3     1  UNL1       -0.0130
     17 C           0.9411    3.7295    8.4071 C.3     1  UNL1       -0.0130
     18 C           3.9617    3.6770    5.8566 C.3     1  UNL1       -0.0126
     19 C           5.0917    1.6903    5.2163 C.3     1  UNL1        0.0225
     20 C           5.8307    0.4016    5.6047 C.3     1  UNL1        0.0730
     21 C           5.8138   -0.5669    4.4488 C.2     1  UNL1       -0.0609
     22 C           6.0705   -1.8575    4.7022 C.2     1  UNL1       -0.0626
     23 C           6.1617   -2.2927    6.0591 C.2     1  UNL1       -0.0466
     24 C           5.6542   -1.4672    7.0202 C.2     1  UNL1        0.0121
     25 H           1.5066   -2.2669   10.7498 H       1  UNL1        0.0248
     26 H           1.2210   -0.5277   10.6684 H       1  UNL1        0.0248
     27 H           1.8331   -1.3924    9.2439 H       1  UNL1        0.0248
     28 H           3.7488   -3.1979   11.1059 H       1  UNL1        0.0248
     29 H           4.0136   -2.6382    9.4500 H       1  UNL1        0.0248
     30 H           5.1764   -2.2404   10.7235 H       1  UNL1        0.0248
     31 H           2.6827   -1.6962   12.7811 H       1  UNL1        0.0248
     32 H           4.2679   -0.9326   12.7709 H       1  UNL1        0.0248
     33 H           2.8087    0.0523   12.5910 H       1  UNL1        0.0248
     34 H           4.8757    1.0225   11.7070 H       1  UNL1        0.0454
     35 H           5.8226   -0.2106   10.8749 H       1  UNL1        0.0454
     36 H           6.3014    1.1464    9.0339 H       1  UNL1        0.0440
     37 H           6.5514    2.1434   10.4910 H       1  UNL1        0.0440
     38 H           5.0986    4.5135    8.3307 H       1  UNL1        0.0439
     39 H           6.6239    3.8391    8.9059 H       1  UNL1        0.0439
     40 H           6.6440    2.1944    7.1220 H       1  UNL1        0.0439
     41 H           6.4533    3.8191    6.4390 H       1  UNL1        0.0439
     42 H           3.8968    2.7116   11.0859 H       1  UNL1        0.0439
     43 H           4.7984    4.1945   10.7349 H       1  UNL1        0.0439
     44 H           3.1373    4.7343    8.9408 H       1  UNL1        0.0439
     45 H           2.4264    4.6360   10.5564 H       1  UNL1        0.0439
     46 H           1.9954    1.7493   10.8551 H       1  UNL1        0.0391
     47 H           0.8035    3.0743   11.0165 H       1  UNL1        0.0391
     48 H           0.5048    1.7136    9.9121 H       1  UNL1        0.0391
     49 H           1.4157    4.2327    7.5663 H       1  UNL1        0.0391
     50 H           0.3747    4.4749    8.9869 H       1  UNL1        0.0391
     51 H           0.2430    2.9931    8.0150 H       1  UNL1        0.0391
     52 H           3.0546    3.3050    5.3814 H       1  UNL1        0.0391
     53 H           3.6778    4.3313    6.6775 H       1  UNL1        0.0391
     54 H           4.5246    4.2693    5.1179 H       1  UNL1        0.0391
     55 H           4.1512    1.4100    4.7323 H       1  UNL1        0.0448
     56 H           5.7077    2.2419    4.4856 H       1  UNL1        0.0448
     57 H           6.9001    0.6581    5.8138 H       1  UNL1        0.0574
     58 H           5.6318   -0.1805    3.4574 H       1  UNL1        0.0591
     59 H           6.1235   -2.5884    3.9073 H       1  UNL1        0.0615
     60 H           6.4567   -3.3024    6.2938 H       1  UNL1        0.0630
     61 H           5.5042   -1.8442    8.0303 H       1  UNL1        0.0797
@<TRIPOS>BOND
     1    58    21    1
     2    59    22    1
     3    21    22    2
     4    21    20    1
     5    56    19    1
     6    22    23    1
     7    55    19    1
     8    54    18    1
     9    19    20    1
    10    19     3    1
    11    52    18    1
    12    20    57    1
    13    20     5    1
    14    18     3    1
    15    18    53    1
    16    23    60    1
    17    23    24    2
    18     3    13    1
    19    41    13    1
    20     5    24    1
    21    24    61    1
    22    13    40    1
    23    13    12    1
    24    49    17    1
    25    51    17    1
    26    38    12    1
    27    17    50    1
    28    17     4    1
    29    12    39    1
    30    12     2    1
    31    44    15    1
    32    36    11    1
    33     4    15    1
    34     4    16    1
    35    27     6    1
    36     2    11    1
    37     2    14    1
    38    29     7    1
    39    15    14    1
    40    15    45    1
    41    11    37    1
    42    11    10    1
    43    48    16    1
    44     1    10    1
    45     1     9    1
    46    14    43    1
    47    14    42    1
    48    16    46    1
    49    16    47    1
    50     6    26    1
    51     6    25    1
    52     6     9    1
    53     7    30    1
    54     7     9    1
    55     7    28    1
    56    10    35    1
    57    10    34    1
    58     9     8    1
    59     8    33    1
    60     8    32    1
    61     8    31    1
