@<TRIPOS>MOLECULE
1,2,3,4
 38 38 0 0 0
SMALL
GASTEIGER

@<TRIPOS>ATOM
      1 N           2.8512    8.6573   13.2826 N.3     1  UNL1       -0.3147
      2 N           4.3532    9.8039   15.2217 N.3     1  UNL1       -0.3147
      3 N           6.1171    7.4831   15.1741 N.3     1  UNL1       -0.3147
      4 N           4.5723    6.3924   13.2369 N.3     1  UNL1       -0.3147
      5 C           4.7145    9.8038   16.6440 C.3     1  UNL1       -0.0029
      6 H           4.0083    9.1602   17.1731 H       1  UNL1        0.0424
      7 H           4.6228   10.8203   17.0448 H       1  UNL1        0.0424
      8 C           6.1325    9.2908   16.8687 C.3     1  UNL1       -0.0278
      9 H           6.4045    9.4764   17.9076 H       1  UNL1        0.0290
     10 H           6.8355    9.8380   16.2351 H       1  UNL1        0.0290
     11 C           6.2425    7.7937   16.6029 C.3     1  UNL1       -0.0029
     12 H           7.2053    7.4234   16.9747 H       1  UNL1        0.0424
     13 H           5.4443    7.2714   17.1349 H       1  UNL1        0.0424
     14 C           6.2446    6.0394   14.9273 C.3     1  UNL1        0.0084
     15 H           5.5321    5.5211   15.5748 H       1  UNL1        0.0436
     16 H           7.2534    5.6819   15.1583 H       1  UNL1        0.0436
     17 C           5.8886    5.7867   13.4698 C.3     1  UNL1        0.0084
     18 H           6.6125    6.2747   12.8104 H       1  UNL1        0.0436
     19 H           5.8787    4.7136   13.2503 H       1  UNL1        0.0436
     20 C           4.1718    6.3119   11.8296 C.3     1  UNL1       -0.0029
     21 H           4.2286    5.2699   11.4931 H       1  UNL1        0.0424
     22 H           4.8739    6.9068   11.2395 H       1  UNL1        0.0424
     23 C           2.7530    6.8295   11.6197 C.3     1  UNL1       -0.0278
     24 H           2.4592    6.6270   10.5901 H       1  UNL1        0.0290
     25 H           2.0626    6.2922   12.2745 H       1  UNL1        0.0290
     26 C           2.6397    8.3293   11.8702 C.3     1  UNL1       -0.0029
     27 H           3.3906    8.8600   11.2791 H       1  UNL1        0.0424
     28 H           1.6451    8.6721   11.5610 H       1  UNL1        0.0424
     29 C           2.6233   10.0805   13.5586 C.3     1  UNL1        0.0084
     30 H           1.5822   10.3625   13.3674 H       1  UNL1        0.0436
     31 H           3.2736   10.6666   12.9023 H       1  UNL1        0.0436
     32 C           2.9911   10.3170   15.0159 C.3     1  UNL1        0.0084
     33 H           2.9196   11.3780   15.2774 H       1  UNL1        0.0436
     34 H           2.3150    9.7503   15.6618 H       1  UNL1        0.0436
     35 H           2.1648    8.1277   13.8340 H       1  UNL1        0.1220
     36 H           6.8998    7.9412   14.6968 H       1  UNL1        0.1220
     37 H           4.9941   10.4486   14.7487 H       1  UNL1        0.1220
     38 H           3.8902    5.8572   13.7884 H       1  UNL1        0.1220
@<TRIPOS>BOND
     1    24    23    1
     2    22    20    1
     3    27    26    1
     4    21    20    1
     5    28    26    1
     6    23    20    1
     7    23    26    1
     8    23    25    1
     9    20     4    1
    10    26     1    1
    11    18    17    1
    12    31    29    1
    13     4    17    1
    14     4    38    1
    15    19    17    1
    16     1    29    1
    17     1    35    1
    18    30    29    1
    19    17    14    1
    20    29    32    1
    21    36     3    1
    22    37     2    1
    23    14    16    1
    24    14     3    1
    25    14    15    1
    26    32     2    1
    27    32    33    1
    28    32    34    1
    29     3    11    1
    30     2     5    1
    31    10     8    1
    32    11     8    1
    33    11    12    1
    34    11    13    1
    35     5     8    1
    36     5     7    1
    37     5     6    1
    38     8     9    1
