@<TRIPOS>MOLECULE
1,2,3,4
 61 61 0 0 0
SMALL
GASTEIGER

@<TRIPOS>ATOM
      1 N           1.6049    3.2861    1.7142 N.3     1  UNL1       -0.2987
      2 N           4.1436    4.4736    1.1004 N.3     1  UNL1       -0.2975
      3 N           3.9561    2.0925    3.0341 N.3     1  UNL1       -0.2975
      4 N           0.7551    5.2554    3.8371 N.3     1  UNL1       -0.2333
      5 C           1.8033    3.9426    0.4180 C.3     1  UNL1        0.0118
      6 C           3.2810    4.0076    0.0061 C.3     1  UNL1        0.0120
      7 C           4.6776    5.8387    0.8614 C.3     1  UNL1        0.0049
      8 C           3.5402    6.8564    0.7516 C.3     1  UNL1       -0.0497
      9 C           5.6114    5.9693   -0.3482 C.3     1  UNL1       -0.0497
     10 C           5.2430    3.5352    1.3702 C.3     1  UNL1        0.0120
     11 C           4.8459    2.1298    1.8599 C.3     1  UNL1        0.0120
     12 C           4.6247    1.5281    4.2354 C.3     1  UNL1        0.0049
     13 C           5.7864    2.4158    4.6701 C.3     1  UNL1       -0.0497
     14 C           5.1009    0.0748    4.1070 C.3     1  UNL1       -0.0497
     15 C           2.7304    1.3201    2.7657 C.3     1  UNL1        0.0120
     16 C           1.8861    1.8503    1.6058 C.3     1  UNL1        0.0118
     17 C           0.2281    3.4881    2.1879 C.3     1  UNL1        0.0131
     18 C          -0.0505    4.9099    2.6797 C.3     1  UNL1        0.0273
     19 C           0.1221    6.3037    4.6460 C.3     1  UNL1        0.0282
     20 C          -1.1043    5.7514    5.4076 C.3     1  UNL1       -0.0458
     21 C          -0.3165    7.5170    3.7998 C.3     1  UNL1       -0.0458
     22 C           1.1066    6.8196    5.7046 C.3     1  UNL1       -0.0458
     23 H           5.6191   -0.2029    5.0207 H       1  UNL1        0.0245
     24 H           5.7946   -0.0605    3.2815 H       1  UNL1        0.0245
     25 H           2.9636    0.2713    2.5325 H       1  UNL1        0.0439
     26 H           0.9552    1.2698    1.5810 H       1  UNL1        0.0439
     27 H          -0.4889    3.2367    1.3904 H       1  UNL1        0.0440
     28 H          -1.1193    4.9349    2.9298 H       1  UNL1        0.0454
     29 H          -1.5856    6.5552    5.9577 H       1  UNL1        0.0248
     30 H          -0.7927    4.9855    6.1134 H       1  UNL1        0.0248
     31 H          -0.5954    8.3389    4.4535 H       1  UNL1        0.0248
     32 H          -1.1717    7.2834    3.1721 H       1  UNL1        0.0248
     33 H           1.4183    4.9594    0.4950 H       1  UNL1        0.0439
     34 H           1.2370    3.4279   -0.3740 H       1  UNL1        0.0439
     35 H           0.5727    7.4103    6.4461 H       1  UNL1        0.0248
     36 H           3.6193    3.0284   -0.3376 H       1  UNL1        0.0439
     37 H           3.3449    4.6708   -0.8600 H       1  UNL1        0.0439
     38 H           1.8558    7.4607    5.2431 H       1  UNL1        0.0248
     39 H           5.2604    6.0894    1.7557 H       1  UNL1        0.0457
     40 H           3.0101    6.7687   -0.1938 H       1  UNL1        0.0245
     41 H           3.9537    7.8609    0.8055 H       1  UNL1        0.0245
     42 H           2.8285    6.7325    1.5754 H       1  UNL1        0.0245
     43 H           6.5139    5.3782   -0.2204 H       1  UNL1        0.0245
     44 H           5.9101    7.0088   -0.4502 H       1  UNL1        0.0245
     45 H           5.1305    5.6707   -1.2761 H       1  UNL1        0.0245
     46 H           5.8778    4.0014    2.1262 H       1  UNL1        0.0439
     47 H           5.8502    3.3730    0.4669 H       1  UNL1        0.0439
     48 H           4.3973    1.5668    1.0400 H       1  UNL1        0.0439
     49 H           5.7906    1.6280    2.0833 H       1  UNL1        0.0439
     50 H           3.8698    1.5570    5.0290 H       1  UNL1        0.0457
     51 H           6.6349    2.3237    3.9969 H       1  UNL1        0.0245
     52 H           6.1212    2.1170    5.6604 H       1  UNL1        0.0245
     53 H           5.4672    3.4590    4.7086 H       1  UNL1        0.0245
     54 H           4.2720   -0.6155    3.9781 H       1  UNL1        0.0245
     55 H           2.1295    1.3415    3.6801 H       1  UNL1        0.0439
     56 H           2.3918    1.6494    0.6618 H       1  UNL1        0.0439
     57 H           0.0623    2.8095    3.0295 H       1  UNL1        0.0440
     58 H           0.0833    5.6250    1.8450 H       1  UNL1        0.0454
     59 H          -1.8425    5.3205    4.7375 H       1  UNL1        0.0248
     60 H           0.5062    7.8464    3.1650 H       1  UNL1        0.0248
     61 H           1.5915    5.9854    6.2120 H       1  UNL1        0.0248
@<TRIPOS>BOND
     1    45     9    1
     2    37     6    1
     3    44     9    1
     4    34     5    1
     5     9    43    1
     6     9     7    1
     7    36     6    1
     8    40     8    1
     9     6     5    1
    10     6     2    1
    11     5    33    1
    12     5     1    1
    13    47    10    1
    14    56    16    1
    15     8    41    1
    16     8     7    1
    17     8    42    1
    18     7     2    1
    19     7    39    1
    20    48    11    1
    21     2    10    1
    22    10    11    1
    23    10    46    1
    24    27    17    1
    25    26    16    1
    26    16     1    1
    27    16    15    1
    28     1    17    1
    29    58    18    1
    30    11    49    1
    31    11     3    1
    32    17    18    1
    33    17    57    1
    34    25    15    1
    35    18    28    1
    36    18     4    1
    37    15     3    1
    38    15    55    1
    39     3    12    1
    40    60    21    1
    41    32    21    1
    42    24    14    1
    43    21    31    1
    44    21    19    1
    45     4    19    1
    46    54    14    1
    47    51    13    1
    48    14    12    1
    49    14    23    1
    50    12    13    1
    51    12    50    1
    52    19    20    1
    53    19    22    1
    54    13    53    1
    55    13    52    1
    56    59    20    1
    57    38    22    1
    58    20    29    1
    59    20    30    1
    60    22    61    1
    61    22    35    1
