@<TRIPOS>MOLECULE
3,4,5,6
 56 55 0 0 0
SMALL
GASTEIGER

@<TRIPOS>ATOM
      1 SI         14.0317    1.5915   14.6464 Si      1  UNL1        0.0000
      2 SI         18.4001    1.8013   11.0644 Si      1  UNL1        0.0000
      3 N          14.0513    1.9183   12.9121 N.3     1  UNL1        0.0000
      4 N          16.6724    2.0132   10.7525 N.3     1  UNL1        0.0000
      5 N          14.8600    4.9644   11.3827 N.3     1  UNL1        0.0000
      6 N          14.0780    2.4973   10.2656 N.3     1  UNL1        0.0000
      7 C          12.8905    1.4964   12.1553 C.3     1  UNL1        0.0000
      8 H          12.0719    2.2236   12.2900 H       1  UNL1        0.0000
      9 H          12.5066    0.5324   12.5040 H       1  UNL1        0.0000
     10 C          13.2546    1.3588   10.6810 C.3     1  UNL1        0.0000
     11 H          13.8597    0.4533   10.5742 H       1  UNL1        0.0000
     12 H          12.3584    1.2591   10.0520 H       1  UNL1        0.0000
     13 C          16.1166    1.3523    9.5915 C.3     1  UNL1        0.0000
     14 H          16.8431    1.2990    8.7758 H       1  UNL1        0.0000
     15 H          15.8437    0.3144    9.8396 H       1  UNL1        0.0000
     16 C          14.8964    2.1337    9.1054 C.3     1  UNL1        0.0000
     17 H          15.2564    3.0466    8.6213 H       1  UNL1        0.0000
     18 H          14.3160    1.5606    8.3694 H       1  UNL1        0.0000
     19 C          14.1095    4.9483   10.1147 C.3     1  UNL1        0.0000
     20 H          13.4675    5.8363   10.0285 H       1  UNL1        0.0000
     21 H          14.8310    4.9816    9.2908 H       1  UNL1        0.0000
     22 C          13.2586    3.6811    9.9996 C.3     1  UNL1        0.0000
     23 H          12.4474    3.7145   10.7339 H       1  UNL1        0.0000
     24 H          12.7996    3.6355    9.0006 H       1  UNL1        0.0000
     25 C          13.8560    3.2831   15.5230 C.3     1  UNL1        0.0000
     26 H          12.9341    3.7953   15.2606 H       1  UNL1        0.0000
     27 H          14.6924    3.9299   15.2783 H       1  UNL1        0.0000
     28 H          13.8501    3.1492   16.5989 H       1  UNL1        0.0000
     29 C          12.5320    0.5176   15.1344 C.3     1  UNL1        0.0000
     30 H          11.5865    0.9746   14.8593 H       1  UNL1        0.0000
     31 H          12.5181    0.3727   16.2091 H       1  UNL1        0.0000
     32 H          12.5714   -0.4681   14.6813 H       1  UNL1        0.0000
     33 C          15.6405    0.6903   15.1064 C.3     1  UNL1        0.0000
     34 H          15.7116   -0.2783   14.6201 H       1  UNL1        0.0000
     35 H          15.6879    0.5222   16.1764 H       1  UNL1        0.0000
     36 H          16.5064    1.2762   14.8207 H       1  UNL1        0.0000
     37 C          19.2435    0.8556    9.6378 C.3     1  UNL1        0.0000
     38 H          19.1838    1.3872    8.6929 H       1  UNL1        0.0000
     39 H          18.8185   -0.1327    9.4947 H       1  UNL1        0.0000
     40 H          20.2967    0.7242    9.8606 H       1  UNL1        0.0000
     41 C          18.5894    0.8204   12.6866 C.3     1  UNL1        0.0000
     42 H          18.6716    1.4960   13.5308 H       1  UNL1        0.0000
     43 H          19.4799    0.2013   12.6728 H       1  UNL1        0.0000
     44 H          17.7314    0.1751   12.8587 H       1  UNL1        0.0000
     45 C          19.1653    3.5504   11.1548 C.3     1  UNL1        0.0000
     46 H          19.0671    4.0968   10.2205 H       1  UNL1        0.0000
     47 H          20.2248    3.4750   11.3712 H       1  UNL1        0.0000
     48 H          18.7138    4.1352   11.9497 H       1  UNL1        0.0000
     49 C          14.0146    5.4569   12.4724 C.3     1  UNL1        0.0000
     50 H          13.1629    4.7897   12.6278 H       1  UNL1        0.0000
     51 H          13.6420    6.4668   12.2543 H       1  UNL1        0.0000
     52 H          14.5967    5.4892   13.3959 H       1  UNL1        0.0000
     53 C          16.0354    5.8289   11.2536 C.3     1  UNL1        0.0000
     54 H          16.7205    5.4124   10.5103 H       1  UNL1        0.0000
     55 H          16.5582    5.8783   12.2111 H       1  UNL1        0.0000
     56 H          15.7481    6.8450   10.9537 H       1  UNL1        0.0000
@<TRIPOS>BOND
     1    18    16    1
     2    17    16    1
     3    38    37    1
     4    14    13    1
     5    24    22    1
     6    16    13    1
     7    16     6    1
     8    21    19    1
     9    39    37    1
    10    13    15    1
    11    13     4    1
    12    37    40    1
    13    37     2    1
    14    22    19    1
    15    22     6    1
    16    22    23    1
    17    20    19    1
    18    12    10    1
    19    19     5    1
    20    46    45    1
    21     6    10    1
    22    54    53    1
    23    11    10    1
    24    10     7    1
    25     4     2    1
    26    56    53    1
    27     2    45    1
    28     2    41    1
    29    45    47    1
    30    45    48    1
    31    53     5    1
    32    53    55    1
    33     5    49    1
    34     7     8    1
    35     7     9    1
    36     7     3    1
    37    51    49    1
    38    49    50    1
    39    49    52    1
    40    43    41    1
    41    41    44    1
    42    41    42    1
    43     3     1    1
    44    34    33    1
    45     1    33    1
    46     1    29    1
    47     1    25    1
    48    32    29    1
    49    36    33    1
    50    30    29    1
    51    33    35    1
    52    29    31    1
    53    26    25    1
    54    27    25    1
    55    25    28    1
