@<TRIPOS>MOLECULE
4,6,7,9
 84 83 0 0 0
SMALL
GASTEIGER

@<TRIPOS>ATOM
      1 SI          4.0077   10.6513    3.3230 Si      1  UNL1        0.0000
      2 SI          4.4439    5.3842    2.5352 Si      1  UNL1        0.0000
      3 SI          8.7745    9.5263    7.6812 Si      1  UNL1        0.0000
      4 N           5.8855    6.1211    3.1210 N.3     1  UNL1        0.0000
      5 N           7.3216    8.2683    2.3291 N.3     1  UNL1        0.0000
      6 N           6.2677    7.5310    6.0328 N.3     1  UNL1        0.0000
      7 N           7.3336    9.0049    4.7970 N.3     1  UNL1        0.0000
      8 N           8.5074    8.1093    6.7050 N.3     1  UNL1        0.0000
      9 N           4.9441    9.4149    2.6182 N.3     1  UNL1        0.0000
     10 C           7.3850    8.1882    5.8398 C.3     1  UNL1        0.0000
     11 C           8.0892    7.0312    2.3876 C.3     1  UNL1        0.0000
     12 H           8.7303    7.0811    3.2713 H       1  UNL1        0.0000
     13 H           8.7421    6.9238    1.5026 H       1  UNL1        0.0000
     14 C           5.4588    9.4742    1.2715 C.3     1  UNL1        0.0000
     15 H           5.8660   10.4739    1.0417 H       1  UNL1        0.0000
     16 H           4.6732    9.2858    0.5187 H       1  UNL1        0.0000
     17 C           6.5599    8.4060    1.0889 C.3     1  UNL1        0.0000
     18 H           6.0798    7.4445    0.8870 H       1  UNL1        0.0000
     19 H           7.2157    8.6660    0.2399 H       1  UNL1        0.0000
     20 C           8.1578    9.4364    2.6013 C.3     1  UNL1        0.0000
     21 H           7.5769   10.3244    2.3479 H       1  UNL1        0.0000
     22 H           9.0786    9.4246    1.9950 H       1  UNL1        0.0000
     23 C           4.8070    4.1514    1.0982 C.3     1  UNL1        0.0000
     24 H           5.4924    3.3723    1.4133 H       1  UNL1        0.0000
     25 H           5.2355    4.6389    0.2274 H       1  UNL1        0.0000
     26 H           3.8923    3.6679    0.7759 H       1  UNL1        0.0000
     27 C           3.2473    6.6886    1.7682 C.3     1  UNL1        0.0000
     28 H           3.5541    7.6992    2.0480 H       1  UNL1        0.0000
     29 H           2.2415    6.5413    2.1476 H       1  UNL1        0.0000
     30 H           3.1977    6.6274    0.6836 H       1  UNL1        0.0000
     31 C           3.5281    4.3206    3.8459 C.3     1  UNL1        0.0000
     32 H           3.0015    4.9510    4.5530 H       1  UNL1        0.0000
     33 H           4.2042    3.6770    4.4004 H       1  UNL1        0.0000
     34 H           2.7929    3.6852    3.3628 H       1  UNL1        0.0000
     35 C           8.4933    9.5047    4.1088 C.3     1  UNL1        0.0000
     36 H           9.4020    8.9303    4.3408 H       1  UNL1        0.0000
     37 H           8.6974   10.5524    4.3770 H       1  UNL1        0.0000
     38 C           5.9738    6.7864    7.2413 C.3     1  UNL1        0.0000
     39 H           6.8910    6.6350    7.8330 H       1  UNL1        0.0000
     40 C           5.3651    5.4428    6.8336 C.3     1  UNL1        0.0000
     41 H           6.0261    4.9087    6.1523 H       1  UNL1        0.0000
     42 H           4.4237    5.6316    6.3201 H       1  UNL1        0.0000
     43 H           5.1800    4.8257    7.7103 H       1  UNL1        0.0000
     44 C           9.4972    7.0623    6.4601 C.3     1  UNL1        0.0000
     45 H          10.2216    7.4277    5.7087 H       1  UNL1        0.0000
     46 C           4.5069   12.4083    2.7142 C.3     1  UNL1        0.0000
     47 H           5.5658   12.6012    2.8608 H       1  UNL1        0.0000
     48 H           3.9568   13.1786    3.2419 H       1  UNL1        0.0000
     49 H           4.2923   12.5237    1.6573 H       1  UNL1        0.0000
     50 C           4.3657   10.5651    5.2132 C.3     1  UNL1        0.0000
     51 H           5.1236    9.7966    5.4185 H       1  UNL1        0.0000
     52 H           3.4617   10.3015    5.7558 H       1  UNL1        0.0000
     53 H           4.7195   11.5150    5.6056 H       1  UNL1        0.0000
     54 C           7.1547    5.7997    2.5007 C.3     1  UNL1        0.0000
     55 H           7.0154    5.3785    1.4952 H       1  UNL1        0.0000
     56 H           7.6879    5.0228    3.0790 H       1  UNL1        0.0000
     57 C           7.3848   10.7857    7.3678 C.3     1  UNL1        0.0000
     58 H           6.4102   10.3507    7.5634 H       1  UNL1        0.0000
     59 H           7.3764   11.1402    6.3427 H       1  UNL1        0.0000
     60 H           7.4980   11.6482    8.0178 H       1  UNL1        0.0000
     61 C           2.1120   10.4929    3.0331 C.3     1  UNL1        0.0000
     62 H           1.7504    9.5480    3.4294 H       1  UNL1        0.0000
     63 H           1.8628   10.5279    1.9764 H       1  UNL1        0.0000
     64 H           1.5639   11.2905    3.5245 H       1  UNL1        0.0000
     65 C          10.2738    6.7318    7.7315 C.3     1  UNL1        0.0000
     66 H          10.8540    7.5823    8.0724 H       1  UNL1        0.0000
     67 H          10.9531    5.9053    7.5339 H       1  UNL1        0.0000
     68 H           9.5862    6.4402    8.5200 H       1  UNL1        0.0000
     69 C           8.7157    9.0817    9.5412 C.3     1  UNL1        0.0000
     70 H           7.9314    8.3648    9.7646 H       1  UNL1        0.0000
     71 H           8.5137    9.9748   10.1237 H       1  UNL1        0.0000
     72 H           9.6517    8.6708    9.9033 H       1  UNL1        0.0000
     73 C           8.8740    5.7705    5.9234 C.3     1  UNL1        0.0000
     74 H           8.1165    5.9725    5.1660 H       1  UNL1        0.0000
     75 H           8.4055    5.2158    6.7325 H       1  UNL1        0.0000
     76 H           9.6530    5.1474    5.4871 H       1  UNL1        0.0000
     77 C           4.9633    7.5782    8.0809 C.3     1  UNL1        0.0000
     78 H           5.4055    8.5084    8.4323 H       1  UNL1        0.0000
     79 H           4.6495    6.9930    8.9423 H       1  UNL1        0.0000
     80 H           4.0924    7.8052    7.4661 H       1  UNL1        0.0000
     81 C          10.4445   10.3752    7.2744 C.3     1  UNL1        0.0000
     82 H          11.2769    9.6784    7.2681 H       1  UNL1        0.0000
     83 H          10.6672   11.1348    8.0166 H       1  UNL1        0.0000
     84 H          10.4256   10.8643    6.3045 H       1  UNL1        0.0000
@<TRIPOS>BOND
     1    25    23    1
     2    19    17    1
     3    16    14    1
     4    30    27    1
     5    26    23    1
     6    18    17    1
     7    15    14    1
     8    17    14    1
     9    17     5    1
    10    23    24    1
    11    23     2    1
    12    14     9    1
    13    55    54    1
    14    13    11    1
    15    49    46    1
    16    27    28    1
    17    27    29    1
    18    27     2    1
    19    63    61    1
    20    22    20    1
    21     5    11    1
    22     5    20    1
    23    21    20    1
    24    11    54    1
    25    11    12    1
    26    54    56    1
    27    54     4    1
    28     2     4    1
    29     2    31    1
    30    20    35    1
    31     9     1    1
    32    46    47    1
    33    46    48    1
    34    46     1    1
    35    61     1    1
    36    61    62    1
    37    61    64    1
    38     1    50    1
    39    34    31    1
    40    31    33    1
    41    31    32    1
    42    35    36    1
    43    35    37    1
    44    35     7    1
    45     7    10    1
    46    74    73    1
    47    50    51    1
    48    50    53    1
    49    50    52    1
    50    76    73    1
    51    45    44    1
    52    10     6    1
    53    10     8    1
    54    73    44    1
    55    73    75    1
    56     6    38    1
    57    41    40    1
    58    84    81    1
    59    42    40    1
    60    59    57    1
    61    44     8    1
    62    44    65    1
    63     8     3    1
    64    40    38    1
    65    40    43    1
    66    38    39    1
    67    38    77    1
    68    82    81    1
    69    81     3    1
    70    81    83    1
    71    57    58    1
    72    57     3    1
    73    57    60    1
    74    80    77    1
    75    67    65    1
    76     3    69    1
    77    65    66    1
    78    65    68    1
    79    77    78    1
    80    77    79    1
    81    69    70    1
    82    69    72    1
    83    69    71    1
