@<TRIPOS>MOLECULE
1,4,5,8
 26 26 0 0 0
SMALL
GASTEIGER

@<TRIPOS>ATOM
      1 N           7.1545    4.7267   14.2679 N.pl3   1  UNL1       -0.1352
      2 N           7.6398    5.8933   14.6534 N.2     1  UNL1       -0.0417
      3 N           6.8445    6.8540   14.4756 N.2     1  UNL1       -0.0417
      4 N           5.6983    6.4939   13.9234 N.pl3   1  UNL1       -0.1352
      5 N           5.2794    3.0236   14.1494 N.pl3   1  UNL1       -0.1352
      6 N           4.1180    2.7380   14.7132 N.2     1  UNL1       -0.0417
      7 N           3.3199    3.7124   14.7403 N.2     1  UNL1       -0.0417
      8 N           3.8177    4.8183   14.2167 N.pl3   1  UNL1       -0.1352
      9 C           4.7425    7.5853   13.8951 C.3     1  UNL1        0.0545
     10 H           5.1158    8.3595   13.2139 H       1  UNL1        0.0500
     11 H           4.6724    8.0268   14.8981 H       1  UNL1        0.0500
     12 C           3.3771    7.0836   13.4378 C.3     1  UNL1       -0.0146
     13 H           3.4578    6.7048   12.4139 H       1  UNL1        0.0298
     14 H           2.6557    7.9008   13.4606 H       1  UNL1        0.0298
     15 C           2.9173    5.9497   14.3482 C.3     1  UNL1        0.0545
     16 H           2.8979    6.2848   15.3945 H       1  UNL1        0.0500
     17 H           1.9077    5.6176   14.0817 H       1  UNL1        0.0500
     18 C           8.0492    3.6246   14.5730 C.3     1  UNL1        0.0545
     19 H           8.0405    3.4322   15.6548 H       1  UNL1        0.0500
     20 H           9.0660    3.9200   14.2911 H       1  UNL1        0.0500
     21 C           7.6121    2.3783   13.8103 C.3     1  UNL1       -0.0146
     22 H           7.5607    2.6162   12.7430 H       1  UNL1        0.0298
     23 H           8.3308    1.5727   13.9626 H       1  UNL1        0.0298
     24 C           6.2336    1.9400   14.2927 C.3     1  UNL1        0.0545
     25 H           5.8777    1.0814   13.7104 H       1  UNL1        0.0500
     26 H           6.2752    1.6360   15.3470 H       1  UNL1        0.0500
@<TRIPOS>BOND
     1    13    12    1
     2    22    21    1
     3    10     9    1
     4    12    14    1
     5    12     9    1
     6    12    15    1
     7    25    24    1
     8    21    23    1
     9    21    24    1
    10    21    18    1
    11     9     4    1
    12     9    11    1
    13     4     3    1
    14    17    15    1
    15     5    24    1
    16     5     6    1
    17     8    15    1
    18     8     7    1
    19     1    18    1
    20     1     2    1
    21    20    18    1
    22    24    26    1
    23    15    16    1
    24     3     2    2
    25    18    19    1
    26     6     7    2
