@<TRIPOS>MOLECULE
1,2,3,4
 54 54 0 0 0
SMALL
GASTEIGER

@<TRIPOS>ATOM
      1 N           5.8462   10.5289    3.2282 N.3     1  UNL1        0.0000
      2 N           7.7802   10.8250    6.8259 N.3     1  UNL1        0.0000
      3 N           6.1003    8.4389    5.4142 N.pl3   1  UNL1        0.0000
      4 N           8.2358    9.8211    4.4515 N.3     1  UNL1        0.0000
      5 C           7.0860   10.6949    2.4989 C.3     1  UNL1        0.0000
      6 C           8.1129    9.6688    3.0059 C.3     1  UNL1        0.0000
      7 C           9.1041   11.1421    6.3320 C.3     1  UNL1        0.0000
      8 C           9.1898   10.8629    4.8159 C.3     1  UNL1        0.0000
      9 C           8.4901    8.5490    5.1151 C.3     1  UNL1        0.0000
     10 C           7.2178    7.7465    5.1557 C.3     1  UNL1        0.0000
     11 C           7.2171    6.3699    4.9669 C.2     1  UNL1        0.0000
     12 C           6.0218    5.6739    5.0553 C.2     1  UNL1        0.0000
     13 C           4.8640    6.3913    5.3235 C.2     1  UNL1        0.0000
     14 C           4.9534    7.7631    5.4894 C.2     1  UNL1        0.0000
     15 C           4.8917    7.9634    1.8421 C.3     1  UNL1        0.0000
     16 C           4.0745   10.6733    0.7753 C.3     1  UNL1        0.0000
     17 C           3.0379    9.7975    3.5641 C.3     1  UNL1        0.0000
     18 C           6.8559    8.8637    8.8803 C.3     1  UNL1        0.0000
     19 C           9.0965   10.8051    9.5582 C.3     1  UNL1        0.0000
     20 C           6.2939   11.9721    9.1637 C.3     1  UNL1        0.0000
     21 SI          4.5575    9.7850    2.4169 Si      1  UNL1        0.0000
     22 SI          7.5052   10.6424    8.4880 Si      1  UNL1        0.0000
     23 H           7.4901   11.7091    2.6519 H       1  UNL1        0.0000
     24 H           6.9671   10.5513    1.4147 H       1  UNL1        0.0000
     25 H           9.0878    9.7810    2.5012 H       1  UNL1        0.0000
     26 H           7.7173    8.6723    2.7854 H       1  UNL1        0.0000
     27 H           9.3720   12.2007    6.4953 H       1  UNL1        0.0000
     28 H           9.8802   10.5543    6.8521 H       1  UNL1        0.0000
     29 H           8.9014   11.7724    4.2775 H       1  UNL1        0.0000
     30 H          10.2206   10.5813    4.5320 H       1  UNL1        0.0000
     31 H           8.7719    8.7546    6.1537 H       1  UNL1        0.0000
     32 H           9.2990    7.9774    4.6285 H       1  UNL1        0.0000
     33 H           8.1409    5.8516    4.7574 H       1  UNL1        0.0000
     34 H           5.9943    4.6041    4.9142 H       1  UNL1        0.0000
     35 H           3.9099    5.8944    5.3977 H       1  UNL1        0.0000
     36 H           4.0712    8.3532    5.6922 H       1  UNL1        0.0000
     37 H           4.0067    7.5087    1.4082 H       1  UNL1        0.0000
     38 H           5.2148    7.3277    2.6629 H       1  UNL1        0.0000
     39 H           5.6697    7.9364    1.0835 H       1  UNL1        0.0000
     40 H           3.2270   10.1965    0.2934 H       1  UNL1        0.0000
     41 H           3.8108   11.7118    0.9532 H       1  UNL1        0.0000
     42 H           4.8959   10.6651    0.0645 H       1  UNL1        0.0000
     43 H           2.5949    8.8112    3.6549 H       1  UNL1        0.0000
     44 H           2.2691   10.4618    3.1857 H       1  UNL1        0.0000
     45 H           3.3379   10.1488    4.5478 H       1  UNL1        0.0000
     46 H           6.0916    8.8813    9.6499 H       1  UNL1        0.0000
     47 H           6.4292    8.3962    7.9953 H       1  UNL1        0.0000
     48 H           7.6531    8.2180    9.2377 H       1  UNL1        0.0000
     49 H           8.8786   10.7146   10.6169 H       1  UNL1        0.0000
     50 H           9.5743   11.7670    9.4023 H       1  UNL1        0.0000
     51 H           9.8230   10.0369    9.3103 H       1  UNL1        0.0000
     52 H           5.6753   11.5904    9.9696 H       1  UNL1        0.0000
     53 H           6.8223   12.8407    9.5465 H       1  UNL1        0.0000
     54 H           5.6435   12.3063    8.3590 H       1  UNL1        0.0000
@<TRIPOS>BOND
     1    42    16    1
     2    40    16    1
     3    16    41    1
     4    16    21    1
     5    39    15    1
     6    37    15    1
     7    24     5    1
     8    15    21    1
     9    15    38    1
    10    21     1    1
    11    21    17    1
    12     5    23    1
    13     5     6    1
    14     5     1    1
    15    25     6    1
    16    26     6    1
    17     6     4    1
    18    44    17    1
    19    17    43    1
    20    17    45    1
    21    29     8    1
    22     4     8    1
    23     4     9    1
    24    30     8    1
    25    32     9    1
    26    33    11    1
    27     8     7    1
    28    34    12    1
    29    11    12    2
    30    11    10    1
    31    12    13    1
    32     9    10    1
    33     9    31    1
    34    10     3    1
    35    13    35    1
    36    13    14    2
    37     3    14    1
    38    14    36    1
    39     7    27    1
    40     7     2    1
    41     7    28    1
    42     2    22    1
    43    47    18    1
    44    54    20    1
    45    22    18    1
    46    22    20    1
    47    22    19    1
    48    18    48    1
    49    18    46    1
    50    20    53    1
    51    20    52    1
    52    51    19    1
    53    50    19    1
    54    19    49    1
