@<TRIPOS>MOLECULE
1,2,3,4
 72 72 0 0 0
SMALL
GASTEIGER

@<TRIPOS>ATOM
      1 N           1.7684    3.2878    9.0824 N.3     1  UNL1        0.0000
      2 N          -0.5488    6.5336    7.8937 N.3     1  UNL1        0.0000
      3 N           1.9805    5.5090    6.6421 N.pl3   1  UNL1        0.0000
      4 N          -0.0885    3.8726    7.2393 N.3     1  UNL1        0.0000
      5 SI          3.2141    2.7666    9.8116 Si      1  UNL1        0.0000
      6 SI         -0.7157    8.1743    7.4938 Si      1  UNL1        0.0000
      7 C           0.7767    2.2473    8.8615 C.3     1  UNL1        0.0000
      8 C          -0.4705    2.8063    8.1585 C.3     1  UNL1        0.0000
      9 C          -1.6804    5.6551    7.6635 C.3     1  UNL1        0.0000
     10 C          -1.2557    4.5503    6.6851 C.3     1  UNL1        0.0000
     11 C           0.8297    3.4337    6.1984 C.3     1  UNL1        0.0000
     12 C           1.6485    4.6011    5.7166 C.3     1  UNL1        0.0000
     13 C           2.0591    4.6961    4.3917 C.2     1  UNL1        0.0000
     14 C           2.8495    5.7647    4.0034 C.2     1  UNL1        0.0000
     15 C           3.1834    6.7130    4.9592 C.2     1  UNL1        0.0000
     16 C           2.7207    6.5470    6.2541 C.2     1  UNL1        0.0000
     17 C           3.7691    4.0451   11.1194 C.3     1  UNL1        0.0000
     18 C           3.0200    1.1125   10.7856 C.3     1  UNL1        0.0000
     19 C           4.6509    2.4254    8.5290 C.3     1  UNL1        0.0000
     20 C           5.9307    1.9705    9.2290 C.3     1  UNL1        0.0000
     21 C           4.2414    1.3421    7.5305 C.3     1  UNL1        0.0000
     22 C           4.9519    3.7045    7.7487 C.3     1  UNL1        0.0000
     23 C           0.9349    9.0350    7.8976 C.3     1  UNL1        0.0000
     24 C          -2.1016    9.0513    8.5174 C.3     1  UNL1        0.0000
     25 C          -1.1288    8.6055    5.6234 C.3     1  UNL1        0.0000
     26 C          -2.5058    8.0874    5.2069 C.3     1  UNL1        0.0000
     27 C          -1.1143   10.1197    5.4021 C.3     1  UNL1        0.0000
     28 C          -0.0843    7.9821    4.6965 C.3     1  UNL1        0.0000
     29 H           0.4443    1.7854    9.8061 H       1  UNL1        0.0000
     30 H           1.1886    1.4166    8.2606 H       1  UNL1        0.0000
     31 H          -1.1272    3.2470    8.9176 H       1  UNL1        0.0000
     32 H          -1.0091    1.9954    7.6332 H       1  UNL1        0.0000
     33 H          -2.0099    5.1819    8.6041 H       1  UNL1        0.0000
     34 H          -2.5514    6.1748    7.2442 H       1  UNL1        0.0000
     35 H          -2.0778    3.8416    6.4854 H       1  UNL1        0.0000
     36 H          -0.9745    5.0290    5.7414 H       1  UNL1        0.0000
     37 H           1.5283    2.7122    6.6331 H       1  UNL1        0.0000
     38 H           0.3082    2.9487    5.3555 H       1  UNL1        0.0000
     39 H           1.7659    3.9396    3.6793 H       1  UNL1        0.0000
     40 H           3.1883    5.8581    2.9830 H       1  UNL1        0.0000
     41 H           3.7894    7.5672    4.7024 H       1  UNL1        0.0000
     42 H           2.9474    7.2757    7.0184 H       1  UNL1        0.0000
     43 H           3.7698    3.6158   12.1158 H       1  UNL1        0.0000
     44 H           3.0703    4.8785   11.1073 H       1  UNL1        0.0000
     45 H           4.7678    4.4219   10.9312 H       1  UNL1        0.0000
     46 H           3.9240    0.8375   11.3183 H       1  UNL1        0.0000
     47 H           2.2267    1.2001   11.5223 H       1  UNL1        0.0000
     48 H           2.7604    0.2869   10.1310 H       1  UNL1        0.0000
     49 H           6.2381    2.6944    9.9791 H       1  UNL1        0.0000
     50 H           5.7798    1.0140    9.7215 H       1  UNL1        0.0000
     51 H           6.7441    1.8579    8.5105 H       1  UNL1        0.0000
     52 H           3.3694    1.6561    6.9597 H       1  UNL1        0.0000
     53 H           4.0002    0.4142    8.0429 H       1  UNL1        0.0000
     54 H           5.0491    1.1398    6.8249 H       1  UNL1        0.0000
     55 H           4.0313    4.1289    7.3450 H       1  UNL1        0.0000
     56 H           5.4149    4.4407    8.4013 H       1  UNL1        0.0000
     57 H           5.6389    3.5086    6.9228 H       1  UNL1        0.0000
     58 H           0.7735    9.9194    8.5030 H       1  UNL1        0.0000
     59 H           1.5505    8.3397    8.4583 H       1  UNL1        0.0000
     60 H           1.4736    9.3456    7.0094 H       1  UNL1        0.0000
     61 H          -2.2864   10.0709    8.1962 H       1  UNL1        0.0000
     62 H          -1.8273    9.0891    9.5679 H       1  UNL1        0.0000
     63 H          -3.0423    8.5117    8.4505 H       1  UNL1        0.0000
     64 H          -2.7496    8.4152    4.1947 H       1  UNL1        0.0000
     65 H          -3.2771    8.4603    5.8762 H       1  UNL1        0.0000
     66 H          -2.5340    7.0003    5.2207 H       1  UNL1        0.0000
     67 H          -1.2583   10.3538    4.3462 H       1  UNL1        0.0000
     68 H          -1.9119   10.5983    5.9633 H       1  UNL1        0.0000
     69 H          -0.1691   10.5509    5.7200 H       1  UNL1        0.0000
     70 H          -0.3384    8.1563    3.6493 H       1  UNL1        0.0000
     71 H           0.8972    8.4112    4.8819 H       1  UNL1        0.0000
     72 H          -0.0167    6.9077    4.8574 H       1  UNL1        0.0000
@<TRIPOS>BOND
     1    40    14    1
     2    70    28    1
     3    39    13    1
     4    14    13    2
     5    14    15    1
     6    64    26    1
     7    67    27    1
     8    13    12    1
     9    28    72    1
    10    28    71    1
    11    28    25    1
    12    41    15    1
    13    15    16    2
    14    26    66    1
    15    26    25    1
    16    26    65    1
    17    38    11    1
    18    27    25    1
    19    27    69    1
    20    27    68    1
    21    25     6    1
    22    12    11    1
    23    12     3    1
    24    36    10    1
    25    11    37    1
    26    11     4    1
    27    16     3    1
    28    16    42    1
    29    35    10    1
    30    10     4    1
    31    10     9    1
    32    54    21    1
    33    57    22    1
    34    52    21    1
    35    60    23    1
    36     4     8    1
    37    34     9    1
    38    55    22    1
    39     6     2    1
    40     6    23    1
    41     6    24    1
    42    21    53    1
    43    21    19    1
    44    32     8    1
    45     9     2    1
    46     9    33    1
    47    22    56    1
    48    22    19    1
    49    23    59    1
    50    23    58    1
    51     8     7    1
    52     8    31    1
    53    61    24    1
    54    30     7    1
    55    63    24    1
    56    51    20    1
    57    24    62    1
    58    19    20    1
    59    19     5    1
    60     7     1    1
    61     7    29    1
    62     1     5    1
    63    20    50    1
    64    20    49    1
    65     5    18    1
    66     5    17    1
    67    48    18    1
    68    18    46    1
    69    18    47    1
    70    45    17    1
    71    44    17    1
    72    17    43    1
