@<TRIPOS>MOLECULE
1,3,4
 49 49 0 0 0
SMALL
GASTEIGER

@<TRIPOS>ATOM
      1 N           1.4282    4.6111    2.1945 N.3     1  UNL1       -0.2333
      2 N           1.5092    5.5011    5.0096 N.3     1  UNL1       -0.2987
      3 N           1.1754    2.6224    5.2588 N.3     1  UNL1       -0.3029
      4 N          -0.6815    4.4570    6.6012 N.3     1  UNL1       -0.3029
      5 C           0.9030    2.8878    0.5578 C.3     1  UNL1       -0.0458
      6 C           3.1707    3.8790    0.5519 C.3     1  UNL1       -0.0458
      7 C           1.2077    5.2346   -0.2165 C.3     1  UNL1       -0.0458
      8 C           1.6797    4.1889    0.8244 C.3     1  UNL1        0.0282
      9 C           2.3571    5.6272    2.6443 C.3     1  UNL1        0.0273
     10 C           1.9003    6.3794    3.9034 C.3     1  UNL1        0.0131
     11 C           2.6218    4.6632    5.4558 C.3     1  UNL1        0.0117
     12 C           2.4826    3.2140    4.9721 C.3     1  UNL1        0.0114
     13 C           1.0816    1.3164    4.6146 C.3     1  UNL1       -0.0127
     14 C           0.9062    2.5078    6.6935 C.3     1  UNL1        0.0114
     15 C          -0.4560    3.0966    7.0863 C.3     1  UNL1        0.0114
     16 C          -2.0596    4.8496    6.8779 C.3     1  UNL1       -0.0127
     17 C           0.2554    5.4259    7.1752 C.3     1  UNL1        0.0114
     18 C           0.9341    6.2860    6.0980 C.3     1  UNL1        0.0117
     19 H           1.2584    2.0999    1.2208 H       1  UNL1        0.0248
     20 H           1.0534    2.5616   -0.4699 H       1  UNL1        0.0248
     21 H          -0.1674    3.0369    0.7194 H       1  UNL1        0.0248
     22 H           3.7726    4.7834    0.5621 H       1  UNL1        0.0248
     23 H           3.2782    3.4135   -0.4251 H       1  UNL1        0.0248
     24 H           3.5562    3.1940    1.3048 H       1  UNL1        0.0248
     25 H           0.1567    5.4684   -0.0548 H       1  UNL1        0.0248
     26 H           1.3345    4.8506   -1.2263 H       1  UNL1        0.0248
     27 H           1.7821    6.1540   -0.1315 H       1  UNL1        0.0248
     28 H           2.5266    6.4112    1.8813 H       1  UNL1        0.0454
     29 H           3.3561    5.1917    2.8512 H       1  UNL1        0.0454
     30 H           2.7218    7.0503    4.2168 H       1  UNL1        0.0440
     31 H           1.0353    6.9969    3.6436 H       1  UNL1        0.0440
     32 H           2.6916    4.6903    6.5451 H       1  UNL1        0.0439
     33 H           3.5763    5.0503    5.0771 H       1  UNL1        0.0439
     34 H           2.5918    3.2119    3.8862 H       1  UNL1        0.0439
     35 H           3.2998    2.6171    5.4163 H       1  UNL1        0.0439
     36 H           1.8325    0.6121    5.0078 H       1  UNL1        0.0391
     37 H           1.2396    1.4255    3.5426 H       1  UNL1        0.0391
     38 H           0.0897    0.8972    4.7728 H       1  UNL1        0.0391
     39 H           1.6992    2.9967    7.2626 H       1  UNL1        0.0439
     40 H           0.9074    1.4556    7.0072 H       1  UNL1        0.0439
     41 H          -1.2389    2.4712    6.6522 H       1  UNL1        0.0439
     42 H          -0.5482    3.0433    8.1866 H       1  UNL1        0.0439
     43 H          -2.7446    4.1653    6.3800 H       1  UNL1        0.0391
     44 H          -2.2367    5.8522    6.4947 H       1  UNL1        0.0391
     45 H          -2.2783    4.8398    7.9575 H       1  UNL1        0.0391
     46 H           1.0117    4.9077    7.7673 H       1  UNL1        0.0439
     47 H          -0.2611    6.1065    7.8644 H       1  UNL1        0.0439
     48 H           0.1811    6.9482    5.6633 H       1  UNL1        0.0439
     49 H           1.6963    6.9173    6.5896 H       1  UNL1        0.0439
@<TRIPOS>BOND
     1    26     7    1
     2    20     5    1
     3    23     6    1
     4     7    27    1
     5     7    25    1
     6     7     8    1
     7     6    22    1
     8     6     8    1
     9     6    24    1
    10     5    21    1
    11     5     8    1
    12     5    19    1
    13     8     1    1
    14    28     9    1
    15     1     9    1
    16     9    29    1
    17     9    10    1
    18    37    13    1
    19    31    10    1
    20    34    12    1
    21    10    30    1
    22    10     2    1
    23    13    38    1
    24    13    36    1
    25    13     3    1
    26    12     3    1
    27    12    35    1
    28    12    11    1
    29     2    11    1
    30     2    18    1
    31    33    11    1
    32     3    14    1
    33    11    32    1
    34    48    18    1
    35    18    49    1
    36    18    17    1
    37    43    16    1
    38    44    16    1
    39     4    16    1
    40     4    15    1
    41     4    17    1
    42    41    15    1
    43    14    40    1
    44    14    15    1
    45    14    39    1
    46    16    45    1
    47    15    42    1
    48    17    46    1
    49    17    47    1
