@<TRIPOS>MOLECULE
1,3,6,12
 65 65 0 0 0
SMALL
GASTEIGER

@<TRIPOS>ATOM
      1 N           3.7420    0.1138    4.9566 N.3     1  UNL1        0.0000
      2 C           3.7000    0.5893    3.7534 C.3     1  UNL1        0.0000
      3 N           4.7177    0.2298    2.9950 N.3     1  UNL1        0.0000
      4 C           5.2533    1.0878    1.9862 C.3     1  UNL1        0.0000
      5 C           6.3651    1.9909    2.5919 C.3     1  UNL1        0.0000
      6 N           6.0194    1.8480    4.9670 N.pl3   1  UNL1        0.0000
      7 C           5.6133    2.2991    6.1440 C.3     1  UNL1        0.0000
      8 C           4.9562    3.5078    6.2966 C.2     1  UNL1        0.0000
      9 C           4.6886    4.2519    5.1585 C.2     1  UNL1        0.0000
     10 C           5.1288    3.7851    3.9327 C.2     1  UNL1        0.0000
     11 C           5.8175    2.5764    3.8721 C.2     1  UNL1        0.0000
     12 N           7.4819   -0.1781    3.3741 N.3     1  UNL1        0.0000
     13 C           7.6542    1.1772    2.9103 C.3     1  UNL1        0.0000
     14 C           2.6426    0.0442    5.9050 C.3     1  UNL1        0.0000
     15 C           3.2545   -0.4228    7.2333 C.3     1  UNL1        0.0000
     16 C           1.9417    1.3938    6.1217 C.3     1  UNL1        0.0000
     17 C           1.6308   -1.0018    5.4132 C.3     1  UNL1        0.0000
     18 O           2.6973    1.3617    3.2799 O.3     1  UNL1        0.0000
     19 SI          1.6988    1.0194    2.0048 Si      1  UNL1        0.0000
     20 C           1.9186   -0.8030    1.4941 C.3     1  UNL1        0.0000
     21 C           2.0708    2.2001    0.5494 C.3     1  UNL1        0.0000
     22 C          -0.0472    1.4230    2.6478 C.3     1  UNL1        0.0000
     23 C           6.7310    3.0782    1.5758 C.3     1  UNL1        0.0000
     24 SI          8.5838   -1.3790    2.7614 Si      1  UNL1        0.0000
     25 C           9.2669   -2.3550    4.2561 C.3     1  UNL1        0.0000
     26 C           7.6067   -2.4266    1.4815 C.3     1  UNL1        0.0000
     27 C          10.0882   -0.6212    1.8425 C.3     1  UNL1        0.0000
     28 H           5.6912    0.4642    1.1974 H       1  UNL1        0.0000
     29 H           4.4787    1.7334    1.5536 H       1  UNL1        0.0000
     30 H           5.8443    1.6604    6.9902 H       1  UNL1        0.0000
     31 H           4.6517    3.8470    7.2747 H       1  UNL1        0.0000
     32 H           4.1478    5.1851    5.2230 H       1  UNL1        0.0000
     33 H           4.9324    4.3544    3.0389 H       1  UNL1        0.0000
     34 H           8.2270    1.7556    3.6585 H       1  UNL1        0.0000
     35 H           8.2504    1.1784    1.9916 H       1  UNL1        0.0000
     36 H           2.4720   -0.7098    7.9321 H       1  UNL1        0.0000
     37 H           3.8448    0.3739    7.6820 H       1  UNL1        0.0000
     38 H           3.9136   -1.2733    7.0548 H       1  UNL1        0.0000
     39 H           1.2096    1.2963    6.9208 H       1  UNL1        0.0000
     40 H           2.6670    2.1542    6.4070 H       1  UNL1        0.0000
     41 H           1.4359    1.7233    5.2192 H       1  UNL1        0.0000
     42 H           0.8355   -1.1343    6.1434 H       1  UNL1        0.0000
     43 H           2.1391   -1.9523    5.2605 H       1  UNL1        0.0000
     44 H           1.1942   -0.6891    4.4679 H       1  UNL1        0.0000
     45 H           1.8249   -0.9452    0.4220 H       1  UNL1        0.0000
     46 H           2.9084   -1.1478    1.7934 H       1  UNL1        0.0000
     47 H           1.1896   -1.4534    1.9702 H       1  UNL1        0.0000
     48 H           1.1795    2.3200   -0.0582 H       1  UNL1        0.0000
     49 H           2.8556    1.8300   -0.1047 H       1  UNL1        0.0000
     50 H           2.3613    3.1899    0.8930 H       1  UNL1        0.0000
     51 H          -0.7704    1.2951    1.8498 H       1  UNL1        0.0000
     52 H          -0.1132    2.4540    2.9838 H       1  UNL1        0.0000
     53 H          -0.3569    0.7901    3.4741 H       1  UNL1        0.0000
     54 H           7.4609    3.7668    1.9982 H       1  UNL1        0.0000
     55 H           7.1637    2.6190    0.6893 H       1  UNL1        0.0000
     56 H           5.8578    3.6439    1.2581 H       1  UNL1        0.0000
     57 H           9.5639   -3.3613    3.9826 H       1  UNL1        0.0000
     58 H          10.1340   -1.8633    4.6882 H       1  UNL1        0.0000
     59 H           8.4986   -2.4177    5.0249 H       1  UNL1        0.0000
     60 H           8.0148   -3.4247    1.3648 H       1  UNL1        0.0000
     61 H           6.5750   -2.5035    1.8193 H       1  UNL1        0.0000
     62 H           7.6098   -1.9608    0.4996 H       1  UNL1        0.0000
     63 H          10.8198   -1.3937    1.6343 H       1  UNL1        0.0000
     64 H          10.5804    0.1423    2.4359 H       1  UNL1        0.0000
     65 H           9.8111   -0.1779    0.8913 H       1  UNL1        0.0000
@<TRIPOS>BOND
     1    49    21    1
     2    48    21    1
     3    45    20    1
     4    62    26    1
     5    21    50    1
     6    21    19    1
     7    55    23    1
     8    65    27    1
     9    28     4    1
    10    56    23    1
    11    60    26    1
    12    26    61    1
    13    26    24    1
    14    20    46    1
    15    20    47    1
    16    20    19    1
    17    29     4    1
    18    23    54    1
    19    23     5    1
    20    63    27    1
    21    27    64    1
    22    27    24    1
    23    51    22    1
    24     4     5    1
    25     4     3    1
    26    35    13    1
    27    19    22    1
    28    19    18    1
    29     5    13    1
    30     5    11    1
    31    22    52    1
    32    22    53    1
    33    24    12    1
    34    24    25    1
    35    13    12    1
    36    13    34    1
    37     3     2    1
    38    33    10    1
    39    18     2    1
    40     2     1    1
    41    11    10    2
    42    11     6    1
    43    10     9    1
    44    57    25    1
    45    25    58    1
    46    25    59    1
    47    44    17    1
    48     1    14    1
    49     6     7    1
    50     9    32    1
    51     9     8    2
    52    41    16    1
    53    43    17    1
    54    17    14    1
    55    17    42    1
    56    14    16    1
    57    14    15    1
    58    16    40    1
    59    16    39    1
    60     7     8    1
    61     7    30    1
    62     8    31    1
    63    38    15    1
    64    15    37    1
    65    15    36    1
