@<TRIPOS>MOLECULE
1,2,3,4
 61 60 0 0 0
SMALL
GASTEIGER

@<TRIPOS>ATOM
      1 N          12.5418    0.0364    4.8862 N.3     1  UNL1        0.0000
      2 N          15.8612    0.3008    3.9509 N.3     1  UNL1        0.0000
      3 N          13.4079    0.3630    1.4541 N.3     1  UNL1        0.0000
      4 N          14.0151   -1.7118    3.2381 N.3     1  UNL1        0.0000
      5 SI         12.7642    0.2708    6.5620 Si      1  UNL1        0.0000
      6 SI         17.2029    0.8538    3.0535 Si      1  UNL1        0.0000
      7 SI         11.8260    0.7328    0.9155 Si      1  UNL1        0.0000
      8 C          11.9241   -1.1761    4.3941 C.3     1  UNL1        0.0000
      9 H          11.4054   -0.9747    3.4417 H       1  UNL1        0.0000
     10 H          11.1808   -1.5819    5.0964 H       1  UNL1        0.0000
     11 C          15.9233   -0.9974    4.5900 C.3     1  UNL1        0.0000
     12 H          15.3116   -0.9973    5.5065 H       1  UNL1        0.0000
     13 H          16.9497   -1.2703    4.8764 H       1  UNL1        0.0000
     14 C          14.0980   -0.8092    0.9659 C.3     1  UNL1        0.0000
     15 H          15.1890   -0.6487    1.0163 H       1  UNL1        0.0000
     16 H          13.8453   -1.0388   -0.0804 H       1  UNL1        0.0000
     17 C          13.0074   -2.2485    4.1568 C.3     1  UNL1        0.0000
     18 H          13.4755   -2.4580    5.1219 H       1  UNL1        0.0000
     19 H          12.5687   -3.1830    3.7740 H       1  UNL1        0.0000
     20 C          15.3810   -2.0716    3.6273 C.3     1  UNL1        0.0000
     21 H          16.0178   -2.0672    2.7391 H       1  UNL1        0.0000
     22 H          15.4211   -3.0752    4.0799 H       1  UNL1        0.0000
     23 C          13.7292   -2.0283    1.8366 C.3     1  UNL1        0.0000
     24 H          12.6565   -2.1988    1.7198 H       1  UNL1        0.0000
     25 H          14.2645   -2.9336    1.5092 H       1  UNL1        0.0000
     26 C          11.3008    1.2272    7.3702 C.3     1  UNL1        0.0000
     27 H          10.4459    0.5757    7.5235 H       1  UNL1        0.0000
     28 H          10.9658    2.0581    6.7560 H       1  UNL1        0.0000
     29 H          11.5812    1.6261    8.3397 H       1  UNL1        0.0000
     30 C          12.9228   -1.3257    7.6347 C.3     1  UNL1        0.0000
     31 H          12.1173   -2.0216    7.4190 H       1  UNL1        0.0000
     32 H          12.8615   -1.0849    8.6909 H       1  UNL1        0.0000
     33 H          13.8619   -1.8503    7.4784 H       1  UNL1        0.0000
     34 C          14.3996    1.2548    6.7891 C.3     1  UNL1        0.0000
     35 H          14.2262    2.2276    7.2384 H       1  UNL1        0.0000
     36 H          14.8927    1.4049    5.8214 H       1  UNL1        0.0000
     37 H          15.0918    0.7317    7.4428 H       1  UNL1        0.0000
     38 C          18.1775   -0.4667    2.0322 C.3     1  UNL1        0.0000
     39 H          17.6124   -0.8451    1.1837 H       1  UNL1        0.0000
     40 H          18.4529   -1.3158    2.6521 H       1  UNL1        0.0000
     41 H          19.0990   -0.0465    1.6415 H       1  UNL1        0.0000
     42 C          16.5022    2.1093    1.7945 C.3     1  UNL1        0.0000
     43 H          15.6156    1.7026    1.3019 H       1  UNL1        0.0000
     44 H          17.2357    2.3401    1.0282 H       1  UNL1        0.0000
     45 H          16.2344    3.0473    2.2738 H       1  UNL1        0.0000
     46 C          18.5532    1.6657    4.1593 C.3     1  UNL1        0.0000
     47 H          18.1187    2.1896    5.0051 H       1  UNL1        0.0000
     48 H          19.1464    2.3792    3.5966 H       1  UNL1        0.0000
     49 H          19.2351    0.9198    4.5564 H       1  UNL1        0.0000
     50 C          11.8080    1.8272   -0.6644 C.3     1  UNL1        0.0000
     51 H          12.3311    1.3495   -1.4879 H       1  UNL1        0.0000
     52 H          12.2799    2.7900   -0.4960 H       1  UNL1        0.0000
     53 H          10.7922    2.0202   -0.9937 H       1  UNL1        0.0000
     54 C          10.7198   -0.7801    0.4349 C.3     1  UNL1        0.0000
     55 H          11.2372   -1.4304   -0.2644 H       1  UNL1        0.0000
     56 H           9.8118   -0.4464   -0.0561 H       1  UNL1        0.0000
     57 H          10.4192   -1.3832    1.2881 H       1  UNL1        0.0000
     58 C          10.9191    1.6456    2.3424 C.3     1  UNL1        0.0000
     59 H          11.3514    1.4114    3.3232 H       1  UNL1        0.0000
     60 H           9.8627    1.3934    2.3632 H       1  UNL1        0.0000
     61 H          10.9851    2.7200    2.1957 H       1  UNL1        0.0000
@<TRIPOS>BOND
     1    51    50    1
     2    53    50    1
     3    50    52    1
     4    50     7    1
     5    55    54    1
     6    16    14    1
     7    56    54    1
     8    54     7    1
     9    54    57    1
    10     7     3    1
    11     7    58    1
    12    14    15    1
    13    14     3    1
    14    14    23    1
    15    44    42    1
    16    39    38    1
    17    43    42    1
    18    25    23    1
    19    41    38    1
    20    24    23    1
    21    42    45    1
    22    42     6    1
    23    23     4    1
    24    38    40    1
    25    38     6    1
    26    61    58    1
    27    58    60    1
    28    58    59    1
    29    21    20    1
    30     6     2    1
    31     6    46    1
    32     4    20    1
    33     4    17    1
    34     9     8    1
    35    48    46    1
    36    20    22    1
    37    20    11    1
    38    19    17    1
    39     2    11    1
    40    17     8    1
    41    17    18    1
    42    46    49    1
    43    46    47    1
    44     8     1    1
    45     8    10    1
    46    11    13    1
    47    11    12    1
    48     1     5    1
    49    36    34    1
    50     5    34    1
    51     5    26    1
    52     5    30    1
    53    28    26    1
    54    34    35    1
    55    34    37    1
    56    26    27    1
    57    26    29    1
    58    31    30    1
    59    33    30    1
    60    30    32    1
