@<TRIPOS>MOLECULE
4,5,6,7
 61 60 0 0 0
SMALL
GASTEIGER

@<TRIPOS>ATOM
      1 SI          1.9086    2.0806    0.2145 Si      1  UNL1        0.0000
      2 SI          1.5254    2.3420    5.7288 Si      1  UNL1        0.0000
      3 SI          6.4543    2.8153    3.2689 Si      1  UNL1        0.0000
      4 N           2.9331    3.1822    1.0656 N.3     1  UNL1        0.0000
      5 N           1.6183    3.1936    4.2276 N.3     1  UNL1        0.0000
      6 N           4.9916    3.5865    3.7722 N.3     1  UNL1        0.0000
      7 N           2.9729    5.0042    2.9295 N.3     1  UNL1        0.0000
      8 C           1.0723    2.9288   -1.2959 C.3     1  UNL1        0.0000
      9 H           0.4453    3.7681   -1.0073 H       1  UNL1        0.0000
     10 H           0.4399    2.2220   -1.8216 H       1  UNL1        0.0000
     11 H           1.8089    3.2946   -2.0042 H       1  UNL1        0.0000
     12 C           0.5214    1.5485    1.4329 C.3     1  UNL1        0.0000
     13 H           0.9064    1.6154    2.4586 H       1  UNL1        0.0000
     14 H           0.2244    0.5210    1.2577 H       1  UNL1        0.0000
     15 H          -0.3721    2.1625    1.3467 H       1  UNL1        0.0000
     16 C           2.9101    0.5985   -0.4583 C.3     1  UNL1        0.0000
     17 H           3.5745    0.8895   -1.2663 H       1  UNL1        0.0000
     18 H           2.2525   -0.1762   -0.8365 H       1  UNL1        0.0000
     19 H           3.5103    0.1720    0.3379 H       1  UNL1        0.0000
     20 C           0.5079    3.3274    7.0304 C.3     1  UNL1        0.0000
     21 H           0.9458    4.2964    7.2542 H       1  UNL1        0.0000
     22 H           0.4559    2.7761    7.9628 H       1  UNL1        0.0000
     23 H          -0.5107    3.4946    6.6949 H       1  UNL1        0.0000
     24 C           0.6601    0.6532    5.5028 C.3     1  UNL1        0.0000
     25 H          -0.3996    0.7638    5.2936 H       1  UNL1        0.0000
     26 H           0.7570    0.0440    6.3945 H       1  UNL1        0.0000
     27 H           1.1152    0.1171    4.6773 H       1  UNL1        0.0000
     28 C           3.3198    2.1732    6.3958 C.3     1  UNL1        0.0000
     29 H           4.0153    2.1756    5.5470 H       1  UNL1        0.0000
     30 H           3.4495    1.2372    6.9263 H       1  UNL1        0.0000
     31 H           3.5908    2.9731    7.0808 H       1  UNL1        0.0000
     32 C           6.1997    2.2548    1.4485 C.3     1  UNL1        0.0000
     33 H           5.1300    2.0782    1.2785 H       1  UNL1        0.0000
     34 H           6.7228    1.3263    1.2520 H       1  UNL1        0.0000
     35 H           6.5589    2.9867    0.7290 H       1  UNL1        0.0000
     36 C           6.8964    1.3650    4.4321 C.3     1  UNL1        0.0000
     37 H           7.2064    1.7104    5.4137 H       1  UNL1        0.0000
     38 H           7.7054    0.7704    4.0226 H       1  UNL1        0.0000
     39 H           6.0335    0.7198    4.5559 H       1  UNL1        0.0000
     40 C           7.9371    4.0403    3.3034 C.3     1  UNL1        0.0000
     41 H           7.7929    4.8864    2.6368 H       1  UNL1        0.0000
     42 H           8.8468    3.5386    2.9926 H       1  UNL1        0.0000
     43 H           8.1065    4.4310    4.3017 H       1  UNL1        0.0000
     44 C           3.2467    4.4965    0.5558 C.3     1  UNL1        0.0000
     45 H           4.0800    4.4499   -0.1660 H       1  UNL1        0.0000
     46 H           2.3958    4.9334    0.0110 H       1  UNL1        0.0000
     47 C           3.6579    5.4236    1.7167 C.3     1  UNL1        0.0000
     48 H           4.7353    5.3221    1.8822 H       1  UNL1        0.0000
     49 H           3.4431    6.4786    1.4700 H       1  UNL1        0.0000
     50 C           0.8495    4.3884    3.9685 C.3     1  UNL1        0.0000
     51 H          -0.1688    4.1344    3.6282 H       1  UNL1        0.0000
     52 H           0.7244    4.9950    4.8784 H       1  UNL1        0.0000
     53 C           1.5363    5.2250    2.8709 C.3     1  UNL1        0.0000
     54 H           1.1793    4.8836    1.8940 H       1  UNL1        0.0000
     55 H           1.2826    6.2947    2.9781 H       1  UNL1        0.0000
     56 C           4.9725    4.9184    4.3301 C.3     1  UNL1        0.0000
     57 H           5.1977    4.8958    5.4101 H       1  UNL1        0.0000
     58 H           5.7402    5.5607    3.8721 H       1  UNL1        0.0000
     59 C           3.5785    5.5475    4.1353 C.3     1  UNL1        0.0000
     60 H           2.9472    5.2732    4.9865 H       1  UNL1        0.0000
     61 H           3.6485    6.6493    4.0967 H       1  UNL1        0.0000
@<TRIPOS>BOND
     1    11     8    1
     2    10     8    1
     3     8     9    1
     4     8     1    1
     5    17    16    1
     6    18    16    1
     7    16     1    1
     8    16    19    1
     9    45    44    1
    10    46    44    1
    11     1     4    1
    12     1    12    1
    13    44     4    1
    14    44    47    1
    15    35    32    1
    16    34    32    1
    17    14    12    1
    18    33    32    1
    19    15    12    1
    20    12    13    1
    21    32     3    1
    22    49    47    1
    23    47    48    1
    24    47     7    1
    25    54    53    1
    26    41    40    1
    27    53     7    1
    28    53    55    1
    29    53    50    1
    30     7    59    1
    31    42    40    1
    32     3    40    1
    33     3     6    1
    34     3    36    1
    35    40    43    1
    36    51    50    1
    37     6    56    1
    38    58    56    1
    39    50     5    1
    40    50    52    1
    41    38    36    1
    42    61    59    1
    43    59    56    1
    44    59    60    1
    45     5     2    1
    46    56    57    1
    47    36    39    1
    48    36    37    1
    49    27    24    1
    50    25    24    1
    51    24     2    1
    52    24    26    1
    53    29    28    1
    54     2    28    1
    55     2    20    1
    56    28    30    1
    57    28    31    1
    58    23    20    1
    59    20    21    1
    60    20    22    1
