@<TRIPOS>MOLECULE
1,2,3,4
 61 60 0 0 0
SMALL
GASTEIGER

@<TRIPOS>ATOM
      1 N           4.9162    1.5007    7.8528 N.3     1  UNL1        0.0000
      2 N           2.8390    2.5386   10.4978 N.3     1  UNL1        0.0000
      3 N           1.5790    1.9343    7.3134 N.3     1  UNL1        0.0000
      4 N           2.8323    0.1108    9.0559 N.3     1  UNL1        0.0000
      5 SI          6.4134    2.0916    8.4187 Si      1  UNL1        0.0000
      6 SI          1.4379    3.3300   11.0713 Si      1  UNL1        0.0000
      7 SI          1.5615    2.1911    5.6271 Si      1  UNL1        0.0000
      8 C           4.6976    0.1236    7.4852 C.3     1  UNL1        0.0000
      9 H           5.6305   -0.3932    7.2193 H       1  UNL1        0.0000
     10 H           4.0243    0.0693    6.6121 H       1  UNL1        0.0000
     11 C           3.3148    1.3249   11.1239 C.3     1  UNL1        0.0000
     12 H           3.1337    1.3179   12.2091 H       1  UNL1        0.0000
     13 H           4.4039    1.2233   10.9679 H       1  UNL1        0.0000
     14 C           0.7867    0.9277    7.9753 C.3     1  UNL1        0.0000
     15 H          -0.0669    0.6009    7.3647 H       1  UNL1        0.0000
     16 H           0.3861    1.3310    8.9211 H       1  UNL1        0.0000
     17 C           4.0455   -0.6122    8.6729 C.3     1  UNL1        0.0000
     18 H           3.8311   -1.6654    8.4310 H       1  UNL1        0.0000
     19 H           4.7562   -0.5830    9.5040 H       1  UNL1        0.0000
     20 C           2.6044    0.1042   10.5012 C.3     1  UNL1        0.0000
     21 H           2.9494   -0.8357   10.9606 H       1  UNL1        0.0000
     22 H           1.5353    0.2127   10.6964 H       1  UNL1        0.0000
     23 C           1.6608   -0.3068    8.2837 C.3     1  UNL1        0.0000
     24 H           1.0834   -1.0822    8.8115 H       1  UNL1        0.0000
     25 H           1.9947   -0.7152    7.3252 H       1  UNL1        0.0000
     26 C           6.0049    3.4106    9.7579 C.3     1  UNL1        0.0000
     27 H           6.2124    4.4037    9.3676 H       1  UNL1        0.0000
     28 H           6.5995    3.2892   10.6594 H       1  UNL1        0.0000
     29 H           4.9413    3.3658   10.0317 H       1  UNL1        0.0000
     30 C           7.5484    0.7630    9.2316 C.3     1  UNL1        0.0000
     31 H           7.7058   -0.0723    8.5569 H       1  UNL1        0.0000
     32 H           7.1302    0.3672   10.1529 H       1  UNL1        0.0000
     33 H           8.5239    1.1742    9.4659 H       1  UNL1        0.0000
     34 C           7.4393    2.9257    7.0257 C.3     1  UNL1        0.0000
     35 H           6.8492    3.7003    6.5423 H       1  UNL1        0.0000
     36 H           7.7391    2.2137    6.2626 H       1  UNL1        0.0000
     37 H           8.3404    3.3889    7.4140 H       1  UNL1        0.0000
     38 C           0.6723    4.2035    9.5423 C.3     1  UNL1        0.0000
     39 H           1.1944    3.9087    8.6173 H       1  UNL1        0.0000
     40 H           0.7334    5.2818    9.6402 H       1  UNL1        0.0000
     41 H          -0.3790    3.9539    9.4287 H       1  UNL1        0.0000
     42 C           1.8177    4.5647   12.4944 C.3     1  UNL1        0.0000
     43 H           2.8113    4.9890   12.4017 H       1  UNL1        0.0000
     44 H           1.7580    4.0774   13.4629 H       1  UNL1        0.0000
     45 H           1.1087    5.3857   12.4981 H       1  UNL1        0.0000
     46 C           0.0466    2.2174   11.8277 C.3     1  UNL1        0.0000
     47 H           0.4498    1.5569   12.5904 H       1  UNL1        0.0000
     48 H          -0.4626    1.6002   11.0916 H       1  UNL1        0.0000
     49 H          -0.7089    2.8318   12.3072 H       1  UNL1        0.0000
     50 C           0.7277    0.7754    4.6270 C.3     1  UNL1        0.0000
     51 H           1.2281   -0.1779    4.7701 H       1  UNL1        0.0000
     52 H           0.7345    0.9930    3.5649 H       1  UNL1        0.0000
     53 H          -0.3086    0.6501    4.9231 H       1  UNL1        0.0000
     54 C           0.5844    3.7927    5.1954 C.3     1  UNL1        0.0000
     55 H           0.8462    4.6022    5.8728 H       1  UNL1        0.0000
     56 H          -0.4875    3.6379    5.2755 H       1  UNL1        0.0000
     57 H           0.7902    4.1260    4.1831 H       1  UNL1        0.0000
     58 C           3.3729    2.3415    4.9907 C.3     1  UNL1        0.0000
     59 H           4.0806    2.3966    5.8259 H       1  UNL1        0.0000
     60 H           3.4973    3.2391    4.3933 H       1  UNL1        0.0000
     61 H           3.6567    1.5027    4.3608 H       1  UNL1        0.0000
@<TRIPOS>BOND
     1    52    50    1
     2    57    54    1
     3    61    58    1
     4    60    58    1
     5    50    51    1
     6    50    53    1
     7    50     7    1
     8    58     7    1
     9    58    59    1
    10    54    56    1
    11    54     7    1
    12    54    55    1
    13     7     3    1
    14    36    34    1
    15    35    34    1
    16    10     8    1
    17    34    37    1
    18    34     5    1
    19     9     8    1
    20     3    14    1
    21    25    23    1
    22    15    14    1
    23     8     1    1
    24     8    17    1
    25     1     5    1
    26    14    23    1
    27    14    16    1
    28    23    24    1
    29    23     4    1
    30     5    30    1
    31     5    26    1
    32    18    17    1
    33    31    30    1
    34    39    38    1
    35    17     4    1
    36    17    19    1
    37     4    20    1
    38    30    33    1
    39    30    32    1
    40    27    26    1
    41    41    38    1
    42    38    40    1
    43    38     6    1
    44    26    29    1
    45    26    28    1
    46     2     6    1
    47     2    11    1
    48    20    22    1
    49    20    21    1
    50    20    11    1
    51    13    11    1
    52     6    46    1
    53     6    42    1
    54    48    46    1
    55    11    12    1
    56    46    49    1
    57    46    47    1
    58    43    42    1
    59    42    45    1
    60    42    44    1
