@<TRIPOS>MOLECULE
1,2,3,4
 54 54 0 0 0
SMALL
GASTEIGER

@<TRIPOS>ATOM
      1 N          -6.1419   -4.0808   27.6125 N.3     1  UNL1        0.0000
      2 N          -6.4534   -7.1826   28.1574 N.3     1  UNL1        0.0000
      3 N          -6.1550   -4.5158   24.5399 N.pl3   1  UNL1        0.0000
      4 N          -4.5389   -5.9275   26.2957 N.3     1  UNL1        0.0000
      5 SI         -7.0261   -2.9902   28.6137 Si      1  UNL1        0.0000
      6 SI         -7.4213   -8.4387   28.8508 Si      1  UNL1        0.0000
      7 C          -4.8683   -3.6211   27.1202 C.3     1  UNL1        0.0000
      8 C          -3.8835   -4.7827   26.9245 C.3     1  UNL1        0.0000
      9 C          -5.0252   -7.1981   28.3425 C.3     1  UNL1        0.0000
     10 C          -4.2752   -7.1778   27.0005 C.3     1  UNL1        0.0000
     11 C          -4.2627   -5.9916   24.8693 C.3     1  UNL1        0.0000
     12 C          -4.9458   -4.8785   24.1199 C.3     1  UNL1        0.0000
     13 C          -4.3539   -4.2843   23.0092 C.2     1  UNL1        0.0000
     14 C          -5.0418   -3.2956   22.3281 C.2     1  UNL1        0.0000
     15 C          -6.3006   -2.9255   22.7777 C.2     1  UNL1        0.0000
     16 C          -6.8136   -3.5666   23.8926 C.2     1  UNL1        0.0000
     17 C          -8.0128   -4.0160   29.8701 C.3     1  UNL1        0.0000
     18 C          -8.1815   -1.9176   27.5182 C.3     1  UNL1        0.0000
     19 C          -5.8863   -1.7881   29.5771 C.3     1  UNL1        0.0000
     20 C          -7.9951   -9.7033   27.5286 C.3     1  UNL1        0.0000
     21 C          -6.4462   -9.4208   30.1777 C.3     1  UNL1        0.0000
     22 C          -8.9353   -7.6627   29.7134 C.3     1  UNL1        0.0000
     23 H          -4.4013   -2.9088   27.8089 H       1  UNL1        0.0000
     24 H          -4.9921   -3.0842   26.1624 H       1  UNL1        0.0000
     25 H          -3.5102   -5.0773   27.9084 H       1  UNL1        0.0000
     26 H          -3.0200   -4.4437   26.3329 H       1  UNL1        0.0000
     27 H          -4.7310   -6.3220   28.9442 H       1  UNL1        0.0000
     28 H          -4.7008   -8.0876   28.8899 H       1  UNL1        0.0000
     29 H          -3.1954   -7.3354   27.1623 H       1  UNL1        0.0000
     30 H          -4.6612   -8.0044   26.3954 H       1  UNL1        0.0000
     31 H          -4.6894   -6.9271   24.4822 H       1  UNL1        0.0000
     32 H          -3.1812   -5.9819   24.6526 H       1  UNL1        0.0000
     33 H          -3.3715   -4.5962   22.6886 H       1  UNL1        0.0000
     34 H          -4.6018   -2.8197   21.4643 H       1  UNL1        0.0000
     35 H          -6.8691   -2.1581   22.2777 H       1  UNL1        0.0000
     36 H          -7.7848   -3.3211   24.2986 H       1  UNL1        0.0000
     37 H          -8.7992   -3.4335   30.3367 H       1  UNL1        0.0000
     38 H          -7.3805   -4.4117   30.6577 H       1  UNL1        0.0000
     39 H          -8.4581   -4.8518   29.3455 H       1  UNL1        0.0000
     40 H          -8.9132   -1.3701   28.1028 H       1  UNL1        0.0000
     41 H          -8.7119   -2.5711   26.8330 H       1  UNL1        0.0000
     42 H          -7.6247   -1.1939   26.9287 H       1  UNL1        0.0000
     43 H          -6.4621   -1.2407   30.3148 H       1  UNL1        0.0000
     44 H          -5.0981   -2.3145   30.1059 H       1  UNL1        0.0000
     45 H          -5.4213   -1.0576   28.9232 H       1  UNL1        0.0000
     46 H          -8.7538  -10.3712   27.9241 H       1  UNL1        0.0000
     47 H          -7.1746  -10.3168   27.1663 H       1  UNL1        0.0000
     48 H          -8.4183   -9.1880   26.6728 H       1  UNL1        0.0000
     49 H          -7.1207  -10.0857   30.7052 H       1  UNL1        0.0000
     50 H          -5.9911   -8.7665   30.9140 H       1  UNL1        0.0000
     51 H          -5.6638  -10.0358   29.7443 H       1  UNL1        0.0000
     52 H          -9.7075   -8.4033   29.8928 H       1  UNL1        0.0000
     53 H          -8.6786   -7.2143   30.6673 H       1  UNL1        0.0000
     54 H          -9.3430   -6.8870   29.0768 H       1  UNL1        0.0000
@<TRIPOS>BOND
     1    34    14    1
     2    35    15    1
     3    14    15    1
     4    14    13    2
     5    33    13    1
     6    15    16    2
     7    13    12    1
     8    16    36    1
     9    16     3    1
    10    12     3    1
    11    12    11    1
    12    31    11    1
    13    32    11    1
    14    11     4    1
    15    24     7    1
    16     4     8    1
    17     4    10    1
    18    26     8    1
    19    30    10    1
    20    48    20    1
    21    41    18    1
    22     8     7    1
    23     8    25    1
    24    42    18    1
    25    10    29    1
    26    10     9    1
    27     7     1    1
    28     7    23    1
    29    47    20    1
    30    18    40    1
    31    18     5    1
    32    20    46    1
    33    20     6    1
    34     1     5    1
    35     2     9    1
    36     2     6    1
    37     9    28    1
    38     9    27    1
    39     5    19    1
    40     5    17    1
    41     6    22    1
    42     6    21    1
    43    45    19    1
    44    54    22    1
    45    39    17    1
    46    19    44    1
    47    19    43    1
    48    22    52    1
    49    22    53    1
    50    51    21    1
    51    17    37    1
    52    17    38    1
    53    21    49    1
    54    21    50    1
