@<TRIPOS>MOLECULE
1,2,3,4
 54 54 0 0 0
SMALL
GASTEIGER

@<TRIPOS>ATOM
      1 N           2.8695    2.6056   20.9199 N.3     1  UNL1        0.0000
      2 N           0.7226    4.1873   24.0582 N.3     1  UNL1        0.0000
      3 N           0.3351    4.4213   20.9518 N.pl3   1  UNL1        0.0000
      4 N           0.5288    2.1446   22.3687 N.3     1  UNL1        0.0000
      5 SI          3.1620    2.9241   19.2791 Si      1  UNL1        0.0000
      6 SI         -0.0111    5.5718   24.7046 Si      1  UNL1        0.0000
      7 C           2.5130    1.2466   21.2661 C.3     1  UNL1        0.0000
      8 C           0.9870    1.1299   21.4275 C.3     1  UNL1        0.0000
      9 C           0.3912    2.9258   24.6952 C.3     1  UNL1        0.0000
     10 C           0.6874    1.7346   23.7587 C.3     1  UNL1        0.0000
     11 C          -0.8120    2.6101   22.0454 C.3     1  UNL1        0.0000
     12 C          -0.7340    3.6231   20.9344 C.3     1  UNL1        0.0000
     13 C          -1.7394    3.7405   19.9797 C.2     1  UNL1        0.0000
     14 C          -1.6393    4.7291   19.0159 C.2     1  UNL1        0.0000
     15 C          -0.5369    5.5706   19.0464 C.2     1  UNL1        0.0000
     16 C           0.4209    5.3758   20.0290 C.2     1  UNL1        0.0000
     17 C           3.5804    4.7695   19.0783 C.3     1  UNL1        0.0000
     18 C           1.7074    2.5032   18.0655 C.3     1  UNL1        0.0000
     19 C           4.6231    1.8851   18.5699 C.3     1  UNL1        0.0000
     20 C          -1.8245    5.2435   25.2885 C.3     1  UNL1        0.0000
     21 C          -0.2039    6.9839   23.4211 C.3     1  UNL1        0.0000
     22 C           0.8203    6.3224   26.2774 C.3     1  UNL1        0.0000
     23 H           2.9941    0.9501   22.2101 H       1  UNL1        0.0000
     24 H           2.8270    0.5169   20.5043 H       1  UNL1        0.0000
     25 H           0.6903    0.1153   21.7484 H       1  UNL1        0.0000
     26 H           0.5387    1.3320   20.4503 H       1  UNL1        0.0000
     27 H           0.9534    2.7718   25.6325 H       1  UNL1        0.0000
     28 H          -0.6723    2.8900   24.9851 H       1  UNL1        0.0000
     29 H           1.7332    1.4351   23.8916 H       1  UNL1        0.0000
     30 H           0.0285    0.8809   24.0080 H       1  UNL1        0.0000
     31 H          -1.2234    3.1295   22.9161 H       1  UNL1        0.0000
     32 H          -1.4905    1.7826   21.7769 H       1  UNL1        0.0000
     33 H          -2.5848    3.0690   19.9959 H       1  UNL1        0.0000
     34 H          -2.4028    4.8403   18.2604 H       1  UNL1        0.0000
     35 H          -0.4214    6.3585   18.3194 H       1  UNL1        0.0000
     36 H           1.2977    6.0075   20.0948 H       1  UNL1        0.0000
     37 H           2.9823    5.2291   18.2984 H       1  UNL1        0.0000
     38 H           4.6209    4.9041   18.8046 H       1  UNL1        0.0000
     39 H           3.3971    5.2813   20.0212 H       1  UNL1        0.0000
     40 H           1.9446    2.7853   17.0444 H       1  UNL1        0.0000
     41 H           0.7862    3.0135   18.3367 H       1  UNL1        0.0000
     42 H           1.5019    1.4356   18.0610 H       1  UNL1        0.0000
     43 H           4.8399    2.1467   17.5393 H       1  UNL1        0.0000
     44 H           5.5295    2.0403   19.1473 H       1  UNL1        0.0000
     45 H           4.4022    0.8218   18.5927 H       1  UNL1        0.0000
     46 H          -2.3071    6.1624   25.6049 H       1  UNL1        0.0000
     47 H          -1.8518    4.5634   26.1345 H       1  UNL1        0.0000
     48 H          -2.4379    4.8141   24.4996 H       1  UNL1        0.0000
     49 H          -1.0818    7.5765   23.6563 H       1  UNL1        0.0000
     50 H           0.6434    7.6598   23.4422 H       1  UNL1        0.0000
     51 H          -0.3223    6.6106   22.4079 H       1  UNL1        0.0000
     52 H           0.3359    7.2447   26.5839 H       1  UNL1        0.0000
     53 H           0.7627    5.6331   27.1157 H       1  UNL1        0.0000
     54 H           1.8704    6.5434   26.1122 H       1  UNL1        0.0000
@<TRIPOS>BOND
     1    40    18    1
     2    43    19    1
     3    42    18    1
     4    18    41    1
     5    18     5    1
     6    34    14    1
     7    37    17    1
     8    35    15    1
     9    19    45    1
    10    19    44    1
    11    19     5    1
    12    38    17    1
    13    14    15    1
    14    14    13    2
    15    15    16    2
    16    17     5    1
    17    17    39    1
    18     5     1    1
    19    13    33    1
    20    13    12    1
    21    16    36    1
    22    16     3    1
    23    26     8    1
    24    24     7    1
    25     1     7    1
    26    12     3    1
    27    12    11    1
    28     7     8    1
    29     7    23    1
    30     8    25    1
    31     8     4    1
    32    32    11    1
    33    11     4    1
    34    11    31    1
    35     4    10    1
    36    51    21    1
    37    21    50    1
    38    21    49    1
    39    21     6    1
    40    10    29    1
    41    10    30    1
    42    10     9    1
    43     2     9    1
    44     2     6    1
    45    48    20    1
    46     9    28    1
    47     9    27    1
    48     6    20    1
    49     6    22    1
    50    20    46    1
    51    20    47    1
    52    54    22    1
    53    22    52    1
    54    22    53    1
