@<TRIPOS>MOLECULE
1,2,3,4
 61 60 0 0 0
SMALL
GASTEIGER

@<TRIPOS>ATOM
      1 N           0.6916   16.4322    2.8675 N.3     1  UNL1        0.0000
      2 N           1.8153   14.1687    3.3914 N.3     1  UNL1        0.0000
      3 N           0.8477   16.6452    5.4328 N.3     1  UNL1        0.0000
      4 N          -1.4319   15.1082    3.4851 N.3     1  UNL1        0.0000
      5 SI         -2.7602   15.1490    4.5933 Si      1  UNL1        0.0000
      6 SI          1.5445   12.4753    3.1589 Si      1  UNL1        0.0000
      7 SI          1.9023   16.3204    6.7656 Si      1  UNL1        0.0000
      8 C           2.1319   16.4332    2.6134 C.3     1  UNL1        0.0000
      9 H           2.6372   16.8943    3.4714 H       1  UNL1        0.0000
     10 H           2.3853   17.0154    1.7118 H       1  UNL1        0.0000
     11 C           2.6034   14.9732    2.4912 C.3     1  UNL1        0.0000
     12 H           3.6766   14.9231    2.7467 H       1  UNL1        0.0000
     13 H           2.5255   14.6313    1.4474 H       1  UNL1        0.0000
     14 C           0.2247   17.7263    3.3634 C.3     1  UNL1        0.0000
     15 H          -0.8714   17.7058    3.4152 H       1  UNL1        0.0000
     16 H           0.5213   18.5498    2.6927 H       1  UNL1        0.0000
     17 C           0.7810   17.9312    4.7838 C.3     1  UNL1        0.0000
     18 H           1.7627   18.4286    4.7422 H       1  UNL1        0.0000
     19 H           0.1152   18.6227    5.3302 H       1  UNL1        0.0000
     20 C          -0.0677   15.9902    1.6985 C.3     1  UNL1        0.0000
     21 H           0.4015   15.0808    1.3012 H       1  UNL1        0.0000
     22 H          -0.0679   16.7525    0.9016 H       1  UNL1        0.0000
     23 C          -1.4991   15.6498    2.1507 C.3     1  UNL1        0.0000
     24 H          -2.1417   16.5422    2.0934 H       1  UNL1        0.0000
     25 H          -1.9321   14.9203    1.4432 H       1  UNL1        0.0000
     26 C          -2.3157   16.1845    6.1626 C.3     1  UNL1        0.0000
     27 H          -2.3692   15.5534    7.0475 H       1  UNL1        0.0000
     28 H          -2.9974   17.0177    6.3118 H       1  UNL1        0.0000
     29 H          -1.2949   16.5818    6.1059 H       1  UNL1        0.0000
     30 C          -4.2145   16.1100    3.7796 C.3     1  UNL1        0.0000
     31 H          -3.9630   17.1441    3.5556 H       1  UNL1        0.0000
     32 H          -5.0680   16.1260    4.4478 H       1  UNL1        0.0000
     33 H          -4.5330   15.6394    2.8546 H       1  UNL1        0.0000
     34 C          -3.4556   13.4128    5.0121 C.3     1  UNL1        0.0000
     35 H          -4.5398   13.4387    5.0354 H       1  UNL1        0.0000
     36 H          -3.1091   13.0641    5.9840 H       1  UNL1        0.0000
     37 H          -3.1598   12.6658    4.2806 H       1  UNL1        0.0000
     38 C          -0.3257   12.0991    2.8441 C.3     1  UNL1        0.0000
     39 H          -0.7005   11.4299    3.6159 H       1  UNL1        0.0000
     40 H          -0.4927   11.6182    1.8838 H       1  UNL1        0.0000
     41 H          -0.9323   13.0123    2.8806 H       1  UNL1        0.0000
     42 C           2.3085   11.3890    4.5409 C.3     1  UNL1        0.0000
     43 H           2.8622   10.5617    4.1098 H       1  UNL1        0.0000
     44 H           1.5406   10.9748    5.1922 H       1  UNL1        0.0000
     45 H           2.9909   11.9498    5.1739 H       1  UNL1        0.0000
     46 C           2.4139   11.9295    1.5313 C.3     1  UNL1        0.0000
     47 H           2.0089   12.4233    0.6509 H       1  UNL1        0.0000
     48 H           2.2900   10.8625    1.3847 H       1  UNL1        0.0000
     49 H           3.4798   12.1330    1.5633 H       1  UNL1        0.0000
     50 C           0.9811   15.9973    8.4147 C.3     1  UNL1        0.0000
     51 H           0.0137   16.4904    8.4462 H       1  UNL1        0.0000
     52 H           1.5677   16.3749    9.2454 H       1  UNL1        0.0000
     53 H           0.8102   14.9348    8.5852 H       1  UNL1        0.0000
     54 C           3.1445   14.9162    6.3062 C.3     1  UNL1        0.0000
     55 H           2.9979   14.0641    6.9670 H       1  UNL1        0.0000
     56 H           4.1790   15.2338    6.4051 H       1  UNL1        0.0000
     57 H           2.9894   14.5665    5.2779 H       1  UNL1        0.0000
     58 C           3.0023   17.8659    7.0807 C.3     1  UNL1        0.0000
     59 H           3.6325   18.1142    6.2299 H       1  UNL1        0.0000
     60 H           3.6593   17.6876    7.9243 H       1  UNL1        0.0000
     61 H           2.4020   18.7398    7.3139 H       1  UNL1        0.0000
@<TRIPOS>BOND
     1    47    46    1
     2    22    20    1
     3    21    20    1
     4    48    46    1
     5    25    23    1
     6    13    11    1
     7    46    49    1
     8    46     6    1
     9    20    23    1
    10    20     1    1
    11    10     8    1
    12    40    38    1
    13    24    23    1
    14    23     4    1
    15    11     8    1
    16    11    12    1
    17    11     2    1
    18     8     1    1
    19     8     9    1
    20    16    14    1
    21    38    41    1
    22    38     6    1
    23    38    39    1
    24    33    30    1
    25     1    14    1
    26     6     2    1
    27     6    42    1
    28    14    15    1
    29    14    17    1
    30     4     5    1
    31    31    30    1
    32    30    32    1
    33    30     5    1
    34    43    42    1
    35    37    34    1
    36    42    45    1
    37    42    44    1
    38     5    34    1
    39     5    26    1
    40    18    17    1
    41    17    19    1
    42    17     3    1
    43    34    35    1
    44    34    36    1
    45    57    54    1
    46     3     7    1
    47    29    26    1
    48    26    28    1
    49    26    27    1
    50    59    58    1
    51    54    56    1
    52    54     7    1
    53    54    55    1
    54     7    58    1
    55     7    50    1
    56    58    61    1
    57    58    60    1
    58    50    51    1
    59    50    53    1
    60    50    52    1
