@<TRIPOS>MOLECULE
1,2,3,4
 196 216 0 0 0
SMALL
GASTEIGER

@<TRIPOS>ATOM
      1 N           9.1235   16.5212   20.4528 N.2     1  UNL1       -0.2465
      2 N           6.6825   15.3504   19.4478 N.ar    1  UNL1       -0.2465
      3 N           5.1395   17.3446   20.8981 N.2     1  UNL1       -0.2465
      4 N           7.6049   18.4703   21.9329 N.ar    1  UNL1       -0.2465
      5 C          10.1552   17.1754   21.0475 C.2     1  UNL1        0.0744
      6 C          11.3890   16.4955   20.7528 C.2     1  UNL1       -0.0336
      7 H          12.3589   16.8028   21.0923 H       1  UNL1        0.0640
      8 C          11.0724   15.4171   20.0008 C.2     1  UNL1       -0.0336
      9 H          11.7331   14.6756   19.5941 H       1  UNL1        0.0640
     10 C           9.6445   15.4322   19.8250 C.2     1  UNL1        0.0744
     11 C           8.9436   14.4573   19.1155 C.2     1  UNL1        0.0340
     12 C           7.5618   14.4718   18.9003 C.ar    1  UNL1        0.0744
     13 C           6.8435   13.5266   18.0959 C.ar    1  UNL1       -0.0336
     14 H           7.2872   12.7190   17.5486 H       1  UNL1        0.0640
     15 C           5.5324   13.8634   18.1660 C.ar    1  UNL1       -0.0336
     16 H           4.7087   13.4005   17.6593 H       1  UNL1        0.0640
     17 C           5.4338   14.9885   19.0517 C.ar    1  UNL1        0.0744
     18 C           4.2291   15.5676   19.4711 C.2     1  UNL1        0.0340
     19 C           4.1137   16.6465   20.3491 C.2     1  UNL1        0.0744
     20 C           2.8676   17.1797   20.8318 C.2     1  UNL1       -0.0336
     21 H           1.8950   16.8038   20.5819 H       1  UNL1        0.0640
     22 C           3.1710   18.2123   21.6507 C.2     1  UNL1       -0.0336
     23 H           2.4943   18.8577   22.1750 H       1  UNL1        0.0640
     24 C           4.6059   18.2954   21.7040 C.2     1  UNL1        0.0744
     25 C           5.3213   19.2130   22.4728 C.2     1  UNL1        0.0340
     26 C           6.7145   19.2796   22.5641 C.ar    1  UNL1        0.0744
     27 C           7.4279   20.2177   23.3846 C.ar    1  UNL1       -0.0336
     28 H           6.9749   20.9621   24.0093 H       1  UNL1        0.0640
     29 C           8.7479   19.9612   23.2228 C.ar    1  UNL1       -0.0336
     30 H           9.5788   20.4714   23.6707 H       1  UNL1        0.0640
     31 C           8.8493   18.8554   22.3137 C.ar    1  UNL1        0.0744
     32 C          10.0493   18.2630   21.9175 C.2     1  UNL1        0.0340
     33 C           9.6796   13.2348   18.6995 C.ar    1  UNL1        0.0016
     34 C          10.0530   12.3342   19.7047 C.ar    1  UNL1       -0.0089
     35 C          10.6955   11.1484   19.3802 C.ar    1  UNL1       -0.0457
     36 H          10.9600   10.4650   20.1743 H       1  UNL1        0.0630
     37 C          10.9539   10.8080   18.0572 C.ar    1  UNL1       -0.0167
     38 C          10.5893   11.7107   17.0659 C.ar    1  UNL1       -0.0457
     39 H          10.8200   11.4952   16.0322 H       1  UNL1        0.0630
     40 C           9.9792   12.9213   17.3727 C.ar    1  UNL1       -0.0089
     41 C           9.7937   12.6102   21.1333 C.ar    1  UNL1       -0.0173
     42 C           8.5016   12.7042   21.6370 C.ar    1  UNL1       -0.0540
     43 H           7.6538   12.6167   20.9718 H       1  UNL1        0.0624
     44 C           8.2980   12.8697   22.9955 C.ar    1  UNL1       -0.0612
     45 H           7.2895   12.9133   23.3782 H       1  UNL1        0.0618
     46 C           9.3753   12.9667   23.8597 C.ar    1  UNL1       -0.0617
     47 H           9.2158   13.0864   24.9214 H       1  UNL1        0.0618
     48 C          10.6648   12.9007   23.3607 C.ar    1  UNL1       -0.0612
     49 H          11.5090   12.9850   24.0296 H       1  UNL1        0.0618
     50 C          10.8716   12.7107   22.0076 C.ar    1  UNL1       -0.0540
     51 H          11.8774   12.6423   21.6179 H       1  UNL1        0.0624
     52 C          11.6098    9.5378   17.7158 C.ar    1  UNL1       -0.0178
     53 C          12.6651    9.0534   18.4851 C.ar    1  UNL1       -0.0540
     54 H          13.0137    9.6267   19.3319 H       1  UNL1        0.0624
     55 C          13.2844    7.8614   18.1594 C.ar    1  UNL1       -0.0612
     56 H          14.1059    7.5009   18.7615 H       1  UNL1        0.0618
     57 C          12.8568    7.1308   17.0634 C.ar    1  UNL1       -0.0617
     58 H          13.3401    6.1987   16.8106 H       1  UNL1        0.0618
     59 C          11.8066    7.6015   16.2932 C.ar    1  UNL1       -0.0612
     60 H          11.4665    7.0337   15.4392 H       1  UNL1        0.0618
     61 C          11.1896    8.7960   16.6143 C.ar    1  UNL1       -0.0540
     62 H          10.3611    9.1509   16.0187 H       1  UNL1        0.0624
     63 C           9.7620   13.8556   16.2475 C.ar    1  UNL1       -0.0173
     64 C           8.8859   13.5428   15.2146 C.ar    1  UNL1       -0.0540
     65 H           8.2811   12.6493   15.2779 H       1  UNL1        0.0624
     66 C           8.7908   14.3623   14.1048 C.ar    1  UNL1       -0.0612
     67 H           8.1036   14.1123   13.3096 H       1  UNL1        0.0618
     68 C           9.5860   15.4915   14.0053 C.ar    1  UNL1       -0.0617
     69 H           9.5244   16.1209   13.1292 H       1  UNL1        0.0618
     70 C          10.4662   15.8055   15.0268 C.ar    1  UNL1       -0.0612
     71 H          11.0946   16.6803   14.9503 H       1  UNL1        0.0618
     72 C          10.5507   14.9950   16.1437 C.ar    1  UNL1       -0.0540
     73 H          11.2565   15.2223   16.9294 H       1  UNL1        0.0624
     74 C           2.9777   14.9643   18.9573 C.ar    1  UNL1        0.0016
     75 C           2.6474   13.6490   19.3020 C.ar    1  UNL1       -0.0089
     76 C           1.5094   13.0587   18.7704 C.ar    1  UNL1       -0.0457
     77 H           1.2790   12.0359   19.0314 H       1  UNL1        0.0630
     78 C           0.6701   13.7602   17.9114 C.ar    1  UNL1       -0.0167
     79 C           0.9820   15.0816   17.6108 C.ar    1  UNL1       -0.0457
     80 H           0.3271   15.6509   16.9671 H       1  UNL1        0.0630
     81 C           2.1206   15.6909   18.1217 C.ar    1  UNL1       -0.0089
     82 C           3.4742   12.8883   20.2596 C.ar    1  UNL1       -0.0173
     83 C           3.9718   11.6338   19.9225 C.ar    1  UNL1       -0.0540
     84 H           3.7694   11.2262   18.9421 H       1  UNL1        0.0624
     85 C           4.7373   10.9171   20.8237 C.ar    1  UNL1       -0.0612
     86 H           5.1339    9.9515   20.5445 H       1  UNL1        0.0618
     87 C           4.9916   11.4324   22.0833 C.ar    1  UNL1       -0.0617
     88 H           5.5845   10.8669   22.7877 H       1  UNL1        0.0618
     89 C           4.4775   12.6690   22.4355 C.ar    1  UNL1       -0.0612
     90 H           4.6528   13.0718   23.4220 H       1  UNL1        0.0618
     91 C           3.7329   13.3991   21.5278 C.ar    1  UNL1       -0.0540
     92 H           3.3341   14.3626   21.8109 H       1  UNL1        0.0624
     93 C          -0.5287   13.1251   17.3451 C.ar    1  UNL1       -0.0178
     94 C          -1.3339   12.3008   18.1275 C.ar    1  UNL1       -0.0540
     95 H          -1.0831   12.1422   19.1664 H       1  UNL1        0.0624
     96 C          -2.4624   11.7076   17.5932 C.ar    1  UNL1       -0.0612
     97 H          -3.0814   11.0754   18.2135 H       1  UNL1        0.0618
     98 C          -2.8021   11.9234   16.2682 C.ar    1  UNL1       -0.0617
     99 H          -3.6829   11.4579   15.8511 H       1  UNL1        0.0618
    100 C          -2.0070   12.7390   15.4805 C.ar    1  UNL1       -0.0612
    101 H          -2.2652   12.9078   14.4450 H       1  UNL1        0.0618
    102 C          -0.8811   13.3375   16.0143 C.ar    1  UNL1       -0.0540
    103 H          -0.2554   13.9601   15.3912 H       1  UNL1        0.0624
    104 C           2.3886   17.1063   17.8061 C.ar    1  UNL1       -0.0173
    105 C           1.3762   18.0484   17.9693 C.ar    1  UNL1       -0.0540
    106 H           0.4009   17.7283   18.3081 H       1  UNL1        0.0624
    107 C           1.6163   19.3889   17.7327 C.ar    1  UNL1       -0.0612
    108 H           0.8254   20.1105   17.8777 H       1  UNL1        0.0618
    109 C           2.8689   19.8067   17.3166 C.ar    1  UNL1       -0.0617
    110 H           3.0576   20.8555   17.1380 H       1  UNL1        0.0618
    111 C           3.8737   18.8734   17.1273 C.ar    1  UNL1       -0.0612
    112 H           4.8503   19.1857   16.7886 H       1  UNL1        0.0618
    113 C           3.6387   17.5334   17.3719 C.ar    1  UNL1       -0.0540
    114 H           4.4276   16.8123   17.2203 H       1  UNL1        0.0624
    115 C           4.5500   20.1966   23.2688 C.ar    1  UNL1        0.0016
    116 C           3.8022   19.7931   24.3789 C.ar    1  UNL1       -0.0089
    117 C           3.1144   20.7435   25.1225 C.ar    1  UNL1       -0.0457
    118 H           2.5312   20.4217   25.9733 H       1  UNL1        0.0630
    119 C           3.1624   22.0936   24.7922 C.ar    1  UNL1       -0.0167
    120 C           3.9000   22.4817   23.6783 C.ar    1  UNL1       -0.0457
    121 H           3.9485   23.5251   23.4018 H       1  UNL1        0.0630
    122 C           4.5826   21.5482   22.9118 C.ar    1  UNL1       -0.0089
    123 C           3.7073   18.3684   24.7522 C.ar    1  UNL1       -0.0173
    124 C           4.8400   17.5828   24.9397 C.ar    1  UNL1       -0.0540
    125 H           5.8237   18.0206   24.8450 H       1  UNL1        0.0624
    126 C           4.7122   16.2450   25.2661 C.ar    1  UNL1       -0.0612
    127 H           5.5979   15.6458   25.4131 H       1  UNL1        0.0618
    128 C           3.4596   15.6712   25.3983 C.ar    1  UNL1       -0.0617
    129 H           3.3636   14.6226   25.6402 H       1  UNL1        0.0618
    130 C           2.3275   16.4490   25.2260 C.ar    1  UNL1       -0.0612
    131 H           1.3462   16.0097   25.3333 H       1  UNL1        0.0618
    132 C           2.4512   17.7897   24.9141 C.ar    1  UNL1       -0.0540
    133 H           1.5661   18.3943   24.7732 H       1  UNL1        0.0624
    134 C           2.4421   23.0892   25.5997 C.ar    1  UNL1       -0.0178
    135 C           2.4412   23.0082   26.9902 C.ar    1  UNL1       -0.0540
    136 H           2.9907   22.2154   27.4771 H       1  UNL1        0.0624
    137 C           1.7664   23.9459   27.7491 C.ar    1  UNL1       -0.0612
    138 H           1.7792   23.8744   28.8271 H       1  UNL1        0.0618
    139 C           1.0771   24.9763   27.1319 C.ar    1  UNL1       -0.0617
    140 H           0.5482   25.7073   27.7255 H       1  UNL1        0.0618
    141 C           1.0691   25.0648   25.7499 C.ar    1  UNL1       -0.0612
    142 H           0.5296   25.8643   25.2630 H       1  UNL1        0.0618
    143 C           1.7479   24.1312   24.9894 C.ar    1  UNL1       -0.0540
    144 H           1.7250   24.1956   23.9110 H       1  UNL1        0.0624
    145 C           5.3293   21.9833   21.7153 C.ar    1  UNL1       -0.0173
    146 C           6.3045   22.9697   21.8165 C.ar    1  UNL1       -0.0540
    147 H           6.5164   23.4117   22.7798 H       1  UNL1        0.0624
    148 C           7.0137   23.3729   20.6999 C.ar    1  UNL1       -0.0612
    149 H           7.7770   24.1321   20.7932 H       1  UNL1        0.0618
    150 C           6.7438   22.8074   19.4657 C.ar    1  UNL1       -0.0617
    151 H           7.2906   23.1296   18.5909 H       1  UNL1        0.0618
    152 C           5.7610   21.8386   19.3530 C.ar    1  UNL1       -0.0612
    153 H           5.5365   21.4043   18.3904 H       1  UNL1        0.0618
    154 C           5.0600   21.4241   20.4698 C.ar    1  UNL1       -0.0540
    155 H           4.2861   20.6762   20.3722 H       1  UNL1        0.0624
    156 C          11.2933   18.7101   22.5888 C.ar    1  UNL1        0.0016
    157 C          12.2851   19.4062   21.8938 C.ar    1  UNL1       -0.0089
    158 C          13.4875   19.7051   22.5229 C.ar    1  UNL1       -0.0457
    159 H          14.2526   20.2286   21.9680 H       1  UNL1        0.0630
    160 C          13.7176   19.3454   23.8457 C.ar    1  UNL1       -0.0167
    161 C          12.6981   18.7107   24.5477 C.ar    1  UNL1       -0.0457
    162 H          12.8405   18.4636   25.5899 H       1  UNL1        0.0630
    163 C          11.4925   18.3915   23.9382 C.ar    1  UNL1       -0.0089
    164 C          12.0575   19.9098   20.5266 C.ar    1  UNL1       -0.0173
    165 C          10.9402   20.6934   20.2497 C.ar    1  UNL1       -0.0540
    166 H          10.2105   20.8813   21.0231 H       1  UNL1        0.0624
    167 C          10.7742   21.2566   18.9981 C.ar    1  UNL1       -0.0612
    168 H           9.9103   21.8747   18.8047 H       1  UNL1        0.0618
    169 C          11.7110   21.0350   18.0029 C.ar    1  UNL1       -0.0617
    170 H          11.5795   21.4769   17.0262 H       1  UNL1        0.0618
    171 C          12.8166   20.2438   18.2654 C.ar    1  UNL1       -0.0612
    172 H          13.5486   20.0623   17.4915 H       1  UNL1        0.0618
    173 C          12.9933   19.6910   19.5206 C.ar    1  UNL1       -0.0540
    174 H          13.8593   19.0770   19.7240 H       1  UNL1        0.0624
    175 C          14.9982   19.6537   24.4989 C.ar    1  UNL1       -0.0178
    176 C          15.6293   20.8772   24.2876 C.ar    1  UNL1       -0.0540
    177 H          15.1625   21.6142   23.6502 H       1  UNL1        0.0624
    178 C          16.8313   21.1648   24.9068 C.ar    1  UNL1       -0.0612
    179 H          17.3067   22.1203   24.7388 H       1  UNL1        0.0618
    180 C          17.4250   20.2337   25.7424 C.ar    1  UNL1       -0.0617
    181 H          18.3650   20.4585   26.2243 H       1  UNL1        0.0618
    182 C          16.8072   19.0131   25.9577 C.ar    1  UNL1       -0.0612
    183 H          17.2677   18.2815   26.6059 H       1  UNL1        0.0618
    184 C          15.6025   18.7257   25.3438 C.ar    1  UNL1       -0.0540
    185 H          15.1318   17.7662   25.5027 H       1  UNL1        0.0624
    186 C          10.4074   17.8008   24.7463 C.ar    1  UNL1       -0.0173
    187 C           9.7207   16.6521   24.3662 C.ar    1  UNL1       -0.0540
    188 H          10.0156   16.1081   23.4804 H       1  UNL1        0.0624
    189 C           8.6648   16.1887   25.1299 C.ar    1  UNL1       -0.0612
    190 H           8.1364   15.3018   24.8147 H       1  UNL1        0.0618
    191 C           8.2861   16.8528   26.2840 C.ar    1  UNL1       -0.0617
    192 H           7.4573   16.4928   26.8760 H       1  UNL1        0.0618
    193 C           8.9792   17.9827   26.6821 C.ar    1  UNL1       -0.0612
    194 H           8.6939   18.5037   27.5846 H       1  UNL1        0.0618
    195 C          10.0320   18.4510   25.9196 C.ar    1  UNL1       -0.0540
    196 H          10.5601   19.3446   26.2217 H       1  UNL1        0.0624
@<TRIPOS>BOND
     1    69    68    1
     2    67    66    1
     3    68    66   ar
     4    68    70   ar
     5    66    64   ar
     6   101   100    1
     7    71    70    1
     8    70    72   ar
     9    64    65    1
    10    64    63   ar
    11   103   102    1
    12    60    59    1
    13   100   102   ar
    14   100    98   ar
    15    99    98    1
    16   102    93   ar
    17    62    61    1
    18    39    38    1
    19    72    63   ar
    20    72    73    1
    21    63    40    1
    22    98    96   ar
    23    59    61   ar
    24    59    57   ar
    25    61    52   ar
    26   112   111    1
    27    58    57    1
    28    80    79    1
    29   170   169    1
    30    57    55   ar
    31    38    40   ar
    32    38    37   ar
    33   111   109   ar
    34   111   113   ar
    35   110   109    1
    36   114   113    1
    37   109   107   ar
    38    93    78    1
    39    93    94   ar
    40   113   104   ar
    41    40    33   ar
    42   172   171    1
    43    14    13    1
    44    96    94   ar
    45    96    97    1
    46    79    78   ar
    47    79    81   ar
    48    16    15    1
    49    52    37    1
    50    52    53   ar
    51   107   108    1
    52   107   105   ar
    53   104   105   ar
    54   104    81    1
    55    78    76   ar
    56   105   106    1
    57   169   171   ar
    58   169   167   ar
    59    37    35   ar
    60    13    15   ar
    61    13    12   ar
    62    81    74   ar
    63    94    95    1
    64    55    53   ar
    65    55    56    1
    66    15    17   ar
    67   171   173   ar
    68   153   152    1
    69    53    54    1
    70   151   150    1
    71    33    11    1
    72    33    34   ar
    73    76    77    1
    74    76    75   ar
    75   168   167    1
    76    12    11    2
    77    12     2   ar
    78    84    83    1
    79    74    75   ar
    80    74    18    1
    81   167   165   ar
    82    17     2   ar
    83    17    18    2
    84    11    10    1
    85    75    82    1
    86   152   150   ar
    87   152   154   ar
    88    35    34   ar
    89    35    36    1
    90   150   148   ar
    91    18    19    1
    92   173   174    1
    93   173   164   ar
    94     9     8    1
    95    34    41    1
    96    10     8    1
    97    10     1    2
    98    83    82   ar
    99    83    85   ar
   100     8     6    2
   101   165   164   ar
   102   165   166    1
   103    82    91   ar
   104    19    20    1
   105    19     3    2
   106   155   154    1
   107     1     5    1
   108   154   145   ar
   109   164   157    1
   110    86    85    1
   111    21    20    1
   112   148   149    1
   113   148   146   ar
   114     6     5    1
   115     6     7    1
   116    85    87   ar
   117    20    22    2
   118     3    24    1
   119    43    42    1
   120     5    32    2
   121    41    42   ar
   122    41    50   ar
   123    91    92    1
   124    91    89   ar
   125    51    50    1
   126    42    44   ar
   127    22    24    1
   128    22    23    1
   129    24    25    2
   130   145   146   ar
   131   145   122    1
   132   146   147    1
   133   157   158   ar
   134   157   156   ar
   135    32    31    1
   136    32   156    1
   137     4    31   ar
   138     4    26   ar
   139   159   158    1
   140    50    48   ar
   141    87    89   ar
   142    87    88    1
   143    31    29   ar
   144    89    90    1
   145    25    26    1
   146    25   115    1
   147   158   160   ar
   148    26    27   ar
   149   156   163   ar
   150   122   115   ar
   151   122   120   ar
   152    44    45    1
   153    44    46   ar
   154    29    27   ar
   155    29    30    1
   156   115   116   ar
   157    48    46   ar
   158    48    49    1
   159    27    28    1
   160   121   120    1
   161   188   187    1
   162   177   176    1
   163   120   119   ar
   164   160   175    1
   165   160   161   ar
   166    46    47    1
   167   144   143    1
   168   163   161   ar
   169   163   186    1
   170   176   175   ar
   171   176   178   ar
   172   187   186   ar
   173   187   189   ar
   174   116   123    1
   175   116   117   ar
   176   175   184   ar
   177   161   162    1
   178   179   178    1
   179   186   195   ar
   180   123   132   ar
   181   123   124   ar
   182   133   132    1
   183   119   117   ar
   184   119   134    1
   185   190   189    1
   186   125   124    1
   187   178   180   ar
   188   132   130   ar
   189   124   126   ar
   190   143   134   ar
   191   143   141   ar
   192   117   118    1
   193   189   191   ar
   194   130   131    1
   195   130   128   ar
   196   142   141    1
   197   126   128   ar
   198   126   127    1
   199   184   185    1
   200   184   182   ar
   201   128   129    1
   202   134   135   ar
   203   180   182   ar
   204   180   181    1
   205   141   139   ar
   206   195   196    1
   207   195   193   ar
   208   182   183    1
   209   191   193   ar
   210   191   192    1
   211   193   194    1
   212   135   136    1
   213   135   137   ar
   214   139   140    1
   215   139   137   ar
   216   137   138    1
