@<TRIPOS>MOLECULE
4,5,6,7
 61 60 0 0 0
SMALL
GASTEIGER

@<TRIPOS>ATOM
      1 SI          1.9681   -0.0425    7.4220 Si      1  UNL1        0.0000
      2 SI          1.0992    4.9551    6.5140 Si      1  UNL1        0.0000
      3 SI          6.3987    2.7977    7.4429 Si      1  UNL1        0.0000
      4 N           2.0838    1.5603    8.0900 N.3     1  UNL1        0.0000
      5 N           2.3909    4.5401    7.6125 N.3     1  UNL1        0.0000
      6 N           5.0856    2.2090    8.4262 N.3     1  UNL1        0.0000
      7 N           3.1359    3.3306    9.8330 N.3     1  UNL1        0.0000
      8 C           1.2794    1.8912    9.2439 C.3     1  UNL1        0.0000
      9 H           0.6596    1.0539    9.5735 H       1  UNL1        0.0000
     10 H           0.6167    2.7329    8.9882 H       1  UNL1        0.0000
     11 C           2.2262    2.3035   10.3678 C.3     1  UNL1        0.0000
     12 H           1.6968    2.6718   11.2562 H       1  UNL1        0.0000
     13 H           2.8071    1.4213   10.6427 H       1  UNL1        0.0000
     14 C           2.7458    5.4421    8.6754 C.3     1  UNL1        0.0000
     15 H           2.1388    6.3522    8.6923 H       1  UNL1        0.0000
     16 H           3.8011    5.7394    8.5883 H       1  UNL1        0.0000
     17 C           2.5369    4.6652    9.9802 C.3     1  UNL1        0.0000
     18 H           2.9512    5.1955   10.8457 H       1  UNL1        0.0000
     19 H           1.4590    4.5568   10.1190 H       1  UNL1        0.0000
     20 C           5.2109    2.0760    9.8537 C.3     1  UNL1        0.0000
     21 H           4.7729    1.1179   10.1701 H       1  UNL1        0.0000
     22 H           6.2517    2.0924   10.1917 H       1  UNL1        0.0000
     23 C           4.4472    3.2492   10.4821 C.3     1  UNL1        0.0000
     24 H           4.9980    4.1657   10.2527 H       1  UNL1        0.0000
     25 H           4.3497    3.1448   11.5722 H       1  UNL1        0.0000
     26 C           3.6392   -0.3901    6.5922 C.3     1  UNL1        0.0000
     27 H           4.4211    0.2311    7.0319 H       1  UNL1        0.0000
     28 H           3.5848   -0.1594    5.5365 H       1  UNL1        0.0000
     29 H           3.9398   -1.4286    6.6852 H       1  UNL1        0.0000
     30 C           0.4481   -0.3231    6.3050 C.3     1  UNL1        0.0000
     31 H          -0.4633    0.0774    6.7401 H       1  UNL1        0.0000
     32 H           0.2904   -1.3823    6.1259 H       1  UNL1        0.0000
     33 H           0.6051    0.1558    5.3450 H       1  UNL1        0.0000
     34 C           1.8058   -1.2840    8.8878 C.3     1  UNL1        0.0000
     35 H           0.8275   -1.2344    9.3542 H       1  UNL1        0.0000
     36 H           2.5501   -1.1113    9.6593 H       1  UNL1        0.0000
     37 H           1.9354   -2.3008    8.5337 H       1  UNL1        0.0000
     38 C           1.8449    6.1189    5.1843 C.3     1  UNL1        0.0000
     39 H           1.9647    7.1343    5.5535 H       1  UNL1        0.0000
     40 H           1.2161    6.1611    4.3018 H       1  UNL1        0.0000
     41 H           2.8248    5.7641    4.8734 H       1  UNL1        0.0000
     42 C           0.3053    3.3787    5.8187 C.3     1  UNL1        0.0000
     43 H           1.0563    2.7028    5.4237 H       1  UNL1        0.0000
     44 H          -0.3715    3.6241    5.0072 H       1  UNL1        0.0000
     45 H          -0.2617    2.8388    6.5707 H       1  UNL1        0.0000
     46 C          -0.2651    5.9433    7.4446 C.3     1  UNL1        0.0000
     47 H           0.0743    6.9301    7.7446 H       1  UNL1        0.0000
     48 H          -0.6134    5.4288    8.3357 H       1  UNL1        0.0000
     49 H          -1.1231    6.0863    6.7972 H       1  UNL1        0.0000
     50 C           7.9357    3.2132    8.5155 C.3     1  UNL1        0.0000
     51 H           7.7169    3.9143    9.3152 H       1  UNL1        0.0000
     52 H           8.7117    3.6537    7.8997 H       1  UNL1        0.0000
     53 H           8.3528    2.3174    8.9624 H       1  UNL1        0.0000
     54 C           6.9362    1.5596    6.1005 C.3     1  UNL1        0.0000
     55 H           7.2028    0.5940    6.5211 H       1  UNL1        0.0000
     56 H           7.8049    1.9334    5.5668 H       1  UNL1        0.0000
     57 H           6.1481    1.3971    5.3688 H       1  UNL1        0.0000
     58 C           5.7631    4.4572    6.6975 C.3     1  UNL1        0.0000
     59 H           6.1604    5.3449    7.1829 H       1  UNL1        0.0000
     60 H           4.6641    4.4653    6.7899 H       1  UNL1        0.0000
     61 H           5.9974    4.5217    5.6391 H       1  UNL1        0.0000
@<TRIPOS>BOND
     1    40    38    1
     2    41    38    1
     3    44    42    1
     4    38    39    1
     5    38     2    1
     6    33    30    1
     7    57    54    1
     8    43    42    1
     9    28    26    1
    10    56    54    1
    11    61    58    1
    12    42     2    1
    13    42    45    1
    14    54    55    1
    15    54     3    1
    16    32    30    1
    17    30    31    1
    18    30     1    1
    19     2    46    1
    20     2     5    1
    21    26    29    1
    22    26    27    1
    23    26     1    1
    24    58    60    1
    25    58    59    1
    26    58     3    1
    27    49    46    1
    28     1     4    1
    29     1    34    1
    30     3     6    1
    31     3    50    1
    32    46    47    1
    33    46    48    1
    34     5    14    1
    35    52    50    1
    36     4     8    1
    37     6    20    1
    38    50    53    1
    39    50    51    1
    40    37    34    1
    41    16    14    1
    42    14    15    1
    43    14    17    1
    44    34    35    1
    45    34    36    1
    46    10     8    1
    47     8     9    1
    48     8    11    1
    49     7    17    1
    50     7    11    1
    51     7    23    1
    52    20    21    1
    53    20    22    1
    54    20    23    1
    55    17    19    1
    56    17    18    1
    57    24    23    1
    58    11    13    1
    59    11    12    1
    60    23    25    1
