@<TRIPOS>MOLECULE
2,3,4,5
 52 52 0 0 0
SMALL
GASTEIGER

@<TRIPOS>ATOM
      1 SI          3.5393    5.5299    0.5827 Si      1  UNL1        0.0000
      2 N           5.1014    5.6064    1.4919 N.3     1  UNL1        0.0000
      3 N           6.6276    7.3427    3.3686 N.3     1  UNL1        0.0000
      4 N           5.5086    4.7527    4.2872 N.3     1  UNL1        0.0000
      5 N           2.4600    5.8762    1.8292 N.3     1  UNL1        0.0000
      6 C           6.0786    6.5676    1.0331 C.3     1  UNL1        0.0000
      7 C           7.1693    6.9406    2.0613 C.3     1  UNL1        0.0000
      8 C           6.8939    8.7601    3.6131 C.3     1  UNL1        0.0000
      9 C           7.2051    6.5748    4.4761 C.3     1  UNL1        0.0000
     10 C           6.9347    5.0673    4.4233 C.3     1  UNL1        0.0000
     11 C           5.0125    4.1725    5.5314 C.3     1  UNL1        0.0000
     12 C           5.2464    3.8131    3.1914 C.3     1  UNL1        0.0000
     13 C           5.6768    4.3145    1.8086 C.3     1  UNL1        0.0000
     14 C           1.0128    5.8449    1.6674 C.3     1  UNL1        0.0000
     15 C           0.5623    6.3190    0.2787 C.3     1  UNL1        0.0000
     16 C           0.4954    4.4116    1.8841 C.3     1  UNL1        0.0000
     17 C           0.3573    6.7700    2.7091 C.3     1  UNL1        0.0000
     18 C           3.7106    6.7199   -0.9292 C.3     1  UNL1        0.0000
     19 C           3.3913    3.8208   -0.2956 C.3     1  UNL1        0.0000
     20 H           5.5398    7.4765    0.7657 H       1  UNL1        0.0000
     21 H           6.6098    6.2127    0.1315 H       1  UNL1        0.0000
     22 H           7.8601    6.1038    2.1855 H       1  UNL1        0.0000
     23 H           7.7552    7.7584    1.6248 H       1  UNL1        0.0000
     24 H           6.4206    9.0698    4.5444 H       1  UNL1        0.0000
     25 H           6.4795    9.3596    2.8060 H       1  UNL1        0.0000
     26 H           7.9744    8.9601    3.6846 H       1  UNL1        0.0000
     27 H           6.7715    6.9713    5.3990 H       1  UNL1        0.0000
     28 H           8.2997    6.7208    4.5244 H       1  UNL1        0.0000
     29 H           7.4982    4.6178    3.6044 H       1  UNL1        0.0000
     30 H           7.3402    4.6350    5.3476 H       1  UNL1        0.0000
     31 H           3.9474    3.9774    5.4495 H       1  UNL1        0.0000
     32 H           5.1704    4.8683    6.3526 H       1  UNL1        0.0000
     33 H           5.5243    3.2261    5.7673 H       1  UNL1        0.0000
     34 H           4.1658    3.6505    3.1576 H       1  UNL1        0.0000
     35 H           5.7419    2.8436    3.3812 H       1  UNL1        0.0000
     36 H           6.7671    4.3574    1.7424 H       1  UNL1        0.0000
     37 H           5.3649    3.5482    1.0930 H       1  UNL1        0.0000
     38 H           0.9833    7.2980    0.0704 H       1  UNL1        0.0000
     39 H          -0.5226    6.3817    0.2283 H       1  UNL1        0.0000
     40 H           0.9074    5.6276   -0.4828 H       1  UNL1        0.0000
     41 H           0.7903    4.0515    2.8664 H       1  UNL1        0.0000
     42 H           0.9224    3.7531    1.1340 H       1  UNL1        0.0000
     43 H          -0.5892    4.3770    1.8087 H       1  UNL1        0.0000
     44 H           0.6232    6.4574    3.7188 H       1  UNL1        0.0000
     45 H          -0.7272    6.7345    2.6125 H       1  UNL1        0.0000
     46 H           0.6862    7.7975    2.5517 H       1  UNL1        0.0000
     47 H           2.9015    6.5552   -1.6332 H       1  UNL1        0.0000
     48 H           4.6412    6.5828   -1.4731 H       1  UNL1        0.0000
     49 H           3.6570    7.7609   -0.6244 H       1  UNL1        0.0000
     50 H           3.2608    3.0078    0.4121 H       1  UNL1        0.0000
     51 H           4.2479    3.5885   -0.9229 H       1  UNL1        0.0000
     52 H           2.5185    3.8212   -0.9411 H       1  UNL1        0.0000
@<TRIPOS>BOND
     1    47    18    1
     2    48    18    1
     3    52    19    1
     4    18    49    1
     5    18     1    1
     6    51    19    1
     7    40    15    1
     8    19    50    1
     9    19     1    1
    10    38    15    1
    11    21     6    1
    12    39    15    1
    13    15    14    1
    14     1     2    1
    15     1     5    1
    16    20     6    1
    17     6     2    1
    18     6     7    1
    19    37    13    1
    20    42    16    1
    21     2    13    1
    22    23     7    1
    23    14     5    1
    24    14    16    1
    25    14    17    1
    26    36    13    1
    27    13    12    1
    28    43    16    1
    29    16    41    1
    30     7    22    1
    31     7     3    1
    32    46    17    1
    33    45    17    1
    34    17    44    1
    35    25     8    1
    36    34    12    1
    37    12    35    1
    38    12     4    1
    39     3     8    1
    40     3     9    1
    41    29    10    1
    42     8    26    1
    43     8    24    1
    44     4    10    1
    45     4    11    1
    46    10     9    1
    47    10    30    1
    48     9    28    1
    49     9    27    1
    50    31    11    1
    51    11    33    1
    52    11    32    1
