@<TRIPOS>MOLECULE
2,3,4,5
 52 52 0 0 0
SMALL
GASTEIGER

@<TRIPOS>ATOM
      1 SI          4.7782    1.7097    4.1098 Si      1  UNL1        0.0000
      2 N           4.5512    0.6691    2.6242 N.3     1  UNL1        0.0000
      3 N           3.1486    0.8934    0.1050 N.3     1  UNL1        0.0000
      4 N           2.0921   -0.6953    2.2889 N.3     1  UNL1        0.0000
      5 N           3.1529    2.1652    4.2586 N.3     1  UNL1        0.0000
      6 C           5.2883    0.9930    1.4193 C.3     1  UNL1        0.0000
      7 C           4.5770    0.5093    0.1337 C.3     1  UNL1        0.0000
      8 C           2.9234    1.8783   -0.9612 C.3     1  UNL1        0.0000
      9 C           2.2726   -0.2578   -0.1550 C.3     1  UNL1        0.0000
     10 C           2.2739   -1.3049    0.9655 C.3     1  UNL1        0.0000
     11 C           0.7528   -0.9762    2.8001 C.3     1  UNL1        0.0000
     12 C           3.0831   -1.1857    3.2520 C.3     1  UNL1        0.0000
     13 C           4.5086   -0.7560    2.8952 C.3     1  UNL1        0.0000
     14 C           2.6375    3.0819    5.2649 C.3     1  UNL1        0.0000
     15 C           3.4669    4.3643    5.3689 C.3     1  UNL1        0.0000
     16 C           2.5385    2.4111    6.6462 C.3     1  UNL1        0.0000
     17 C           1.5741    1.2333    6.6358 C.3     1  UNL1        0.0000
     18 C           6.2117    2.9399    3.7355 C.3     1  UNL1        0.0000
     19 C           5.5144    0.6395    5.5283 C.3     1  UNL1        0.0000
     20 H           6.3027    0.5565    1.4230 H       1  UNL1        0.0000
     21 H           5.3880    2.0789    1.3639 H       1  UNL1        0.0000
     22 H           5.1027    0.9437   -0.7237 H       1  UNL1        0.0000
     23 H           4.6679   -0.5766    0.0426 H       1  UNL1        0.0000
     24 H           3.1396    1.4480   -1.9498 H       1  UNL1        0.0000
     25 H           3.5605    2.7460   -0.7982 H       1  UNL1        0.0000
     26 H           1.8862    2.2155   -0.9412 H       1  UNL1        0.0000
     27 H           2.5507   -0.7566   -1.0998 H       1  UNL1        0.0000
     28 H           1.2559    0.1314   -0.2662 H       1  UNL1        0.0000
     29 H           1.4728   -2.0252    0.7534 H       1  UNL1        0.0000
     30 H           3.2093   -1.8669    0.9438 H       1  UNL1        0.0000
     31 H           0.6087   -2.0520    2.9830 H       1  UNL1        0.0000
     32 H           0.0058   -0.6405    2.0840 H       1  UNL1        0.0000
     33 H           0.5998   -0.4393    3.7349 H       1  UNL1        0.0000
     34 H           3.0358   -2.2845    3.3464 H       1  UNL1        0.0000
     35 H           2.8374   -0.7421    4.2185 H       1  UNL1        0.0000
     36 H           5.1553   -1.0321    3.7350 H       1  UNL1        0.0000
     37 H           4.8719   -1.3210    2.0321 H       1  UNL1        0.0000
     38 H           1.6145    3.3620    4.9592 H       1  UNL1        0.0000
     39 H           2.9560    5.1070    5.9775 H       1  UNL1        0.0000
     40 H           3.6303    4.7731    4.3745 H       1  UNL1        0.0000
     41 H           4.4337    4.1430    5.8133 H       1  UNL1        0.0000
     42 H           2.2058    3.1521    7.3761 H       1  UNL1        0.0000
     43 H           3.5330    2.0681    6.9326 H       1  UNL1        0.0000
     44 H           0.5663    1.5695    6.3998 H       1  UNL1        0.0000
     45 H           1.5577    0.7353    7.6033 H       1  UNL1        0.0000
     46 H           1.8854    0.5188    5.8770 H       1  UNL1        0.0000
     47 H           5.8955    3.7076    3.0364 H       1  UNL1        0.0000
     48 H           7.0899    2.4509    3.3216 H       1  UNL1        0.0000
     49 H           6.5230    3.4453    4.6446 H       1  UNL1        0.0000
     50 H           5.7731    1.2788    6.3655 H       1  UNL1        0.0000
     51 H           6.4235    0.1246    5.2324 H       1  UNL1        0.0000
     52 H           4.8101   -0.0993    5.8958 H       1  UNL1        0.0000
@<TRIPOS>BOND
     1    24     8    1
     2    27     9    1
     3     8    26    1
     4     8    25    1
     5     8     3    1
     6    22     7    1
     7    28     9    1
     8     9     3    1
     9     9    10    1
    10    23     7    1
    11     3     7    1
    12     7     6    1
    13    29    10    1
    14    30    10    1
    15    10     4    1
    16    21     6    1
    17     6    20    1
    18     6     2    1
    19    37    13    1
    20    32    11    1
    21     4    11    1
    22     4    12    1
    23     2    13    1
    24     2     1    1
    25    11    31    1
    26    11    33    1
    27    13    12    1
    28    13    36    1
    29    47    18    1
    30    12    34    1
    31    12    35    1
    32    48    18    1
    33    18     1    1
    34    18    49    1
    35     1     5    1
    36     1    19    1
    37     5    14    1
    38    40    15    1
    39    38    14    1
    40    51    19    1
    41    14    15    1
    42    14    16    1
    43    15    41    1
    44    15    39    1
    45    19    52    1
    46    19    50    1
    47    46    17    1
    48    44    17    1
    49    17    16    1
    50    17    45    1
    51    16    43    1
    52    16    42    1
