@<TRIPOS>MOLECULE
1,2,3,5
 41 43 0 0 0
SMALL
GASTEIGER

@<TRIPOS>ATOM
      1 N           7.7393    7.2724    4.5357 N.3     1  UNL1        0.0000
      2 N           7.5799    7.4543    5.8811 N.pl3   1  UNL1        0.0000
      3 N           7.0805    4.3258    5.4468 N.3     1  UNL1        0.0000
      4 N           7.9606    4.9941    6.2407 N.pl3   1  UNL1        0.0000
      5 N           5.1616    6.1371    6.4134 N.3     1  UNL1        0.0000
      6 N           6.1347    6.1929    7.3602 N.pl3   1  UNL1        0.0000
      7 C           7.5591    8.5162    3.9231 C.3     1  UNL1        0.0000
      8 C           7.3681    9.4743    4.9760 C.2     1  UNL1        0.0000
      9 C           7.3863    8.7996    6.1531 C.2     1  UNL1        0.0000
     10 C           7.3743    8.6896    2.5725 C.3     1  UNL1        0.0000
     11 C           7.2331    9.2798    7.5536 C.3     1  UNL1        0.0000
     12 C           7.4685    3.0528    5.4131 C.3     1  UNL1        0.0000
     13 C           8.6305    2.8943    6.1738 C.2     1  UNL1        0.0000
     14 C           8.9091    4.1488    6.6843 C.2     1  UNL1        0.0000
     15 C           6.6707    2.0134    4.7068 C.3     1  UNL1        0.0000
     16 C          10.0331    4.6009    7.5429 C.3     1  UNL1        0.0000
     17 C           4.0239    5.8599    7.0453 C.3     1  UNL1        0.0000
     18 C           4.2618    5.7339    8.4190 C.2     1  UNL1        0.0000
     19 C           5.6212    5.9414    8.5750 C.2     1  UNL1        0.0000
     20 C           2.7336    5.7250    6.3130 C.3     1  UNL1        0.0000
     21 C           6.4687    5.9031    9.7950 C.3     1  UNL1        0.0000
     22 B           7.5332    6.3471    6.7896 B       1  UNL1        0.0000
     23 H           6.1201    2.4656    3.8821 H       1  UNL1        0.0000
     24 H           6.2590    8.9994    7.9579 H       1  UNL1        0.0000
     25 H           7.6962    7.7884    2.0120 H       1  UNL1        0.0000
     26 H          10.3635    3.7956    8.1938 H       1  UNL1        0.0000
     27 H           2.3114    4.7338    6.4745 H       1  UNL1        0.0000
     28 H           9.7254    5.4564    8.1422 H       1  UNL1        0.0000
     29 H           8.0003    8.8350    8.1889 H       1  UNL1        0.0000
     30 H           7.2743    6.6306    9.7157 H       1  UNL1        0.0000
     31 H           2.0105    6.4592    6.6689 H       1  UNL1        0.0000
     32 H           7.3153    1.2208    4.3363 H       1  UNL1        0.0000
     33 H           6.9151    4.9151    9.9115 H       1  UNL1        0.0000
     34 H           7.2646   10.5335    4.8375 H       1  UNL1        0.0000
     35 H           9.1863    1.9927    6.3329 H       1  UNL1        0.0000
     36 H           3.5457    5.5161    9.1853 H       1  UNL1        0.0000
     37 H          10.8715    4.9040    6.9161 H       1  UNL1        0.0000
     38 H           7.3237   10.3622    7.5876 H       1  UNL1        0.0000
     39 H           5.9513    1.5711    5.3975 H       1  UNL1        0.0000
     40 H           2.9014    5.8707    5.2455 H       1  UNL1        0.0000
     41 H           5.8715    6.1168   10.6775 H       1  UNL1        0.0000
@<TRIPOS>BOND
     1    25    10    1
     2    10     7    1
     3    23    15    1
     4     7     1    1
     5     7     8    1
     6    32    15    1
     7     1     2    1
     8    15    39    1
     9    15    12    1
    10    34     8    1
    11     8     9    2
    12    40    20    1
    13    12     3    1
    14    12    13    1
    15     3     4    1
    16     2     9    1
    17     2    22    1
    18     9    11    1
    19    13    35    1
    20    13    14    2
    21     4    14    1
    22     4    22    1
    23    20    27    1
    24    20    31    1
    25    20    17    1
    26     5    17    1
    27     5     6    1
    28    14    16    1
    29    22     6    1
    30    37    16    1
    31    17    18    1
    32     6    19    1
    33    16    28    1
    34    16    26    1
    35    11    38    1
    36    11    24    1
    37    11    29    1
    38    18    19    2
    39    18    36    1
    40    19    21    1
    41    30    21    1
    42    21    33    1
    43    21    41    1
