@<TRIPOS>MOLECULE
2,3,35,49
 66 66 0 0 0
SMALL
GASTEIGER

@<TRIPOS>ATOM
      1 SI         -1.0594    5.3114    3.3020 Si      1  UNL1        0.0000
      2 N          -2.7828    5.3212    2.8930 N.3     1  UNL1        0.0000
      3 N          -0.4979    6.8884    3.0518 N.3     1  UNL1        0.0000
      4 C          -0.1641    3.7064    2.7952 C.3     1  UNL1        0.0000
      5 C          -3.4729    5.1885    1.6372 C.3     1  UNL1        0.0000
      6 C          -4.8714    5.8093    1.7635 C.3     1  UNL1        0.0000
      7 C          -3.6087    3.7127    1.2186 C.3     1  UNL1        0.0000
      8 C          -2.6973    5.9568    0.5584 C.3     1  UNL1        0.0000
      9 C           0.6824    7.4230    2.4185 C.3     1  UNL1        0.0000
     10 C           1.9315    6.5647    2.6776 C.3     1  UNL1        0.0000
     11 C           0.4927    7.5456    0.8927 C.3     1  UNL1        0.0000
     12 C           0.9272    8.8347    2.9921 C.3     1  UNL1        0.0000
     13 H           0.7733    3.6071    3.3298 H       1  UNL1        0.0000
     14 H          -0.7641    2.8269    3.0000 H       1  UNL1        0.0000
     15 H           0.0643    3.7205    1.7353 H       1  UNL1        0.0000
     16 H          -5.3661    5.8537    0.7951 H       1  UNL1        0.0000
     17 H          -5.4794    5.2138    2.4391 H       1  UNL1        0.0000
     18 H          -4.7723    6.8162    2.1778 H       1  UNL1        0.0000
     19 H          -2.6231    3.2707    1.1000 H       1  UNL1        0.0000
     20 H          -4.1434    3.1604    1.9870 H       1  UNL1        0.0000
     21 H          -4.1500    3.6242    0.2790 H       1  UNL1        0.0000
     22 H          -2.5291    6.9785    0.9103 H       1  UNL1        0.0000
     23 H          -1.7341    5.4828    0.3911 H       1  UNL1        0.0000
     24 H          -3.2468    5.9728   -0.3809 H       1  UNL1        0.0000
     25 H           2.8082    7.0206    2.2224 H       1  UNL1        0.0000
     26 H           2.1015    6.4664    3.7457 H       1  UNL1        0.0000
     27 H           1.7936    5.5740    2.2563 H       1  UNL1        0.0000
     28 H          -0.3912    8.1426    0.6760 H       1  UNL1        0.0000
     29 H           1.3595    8.0167    0.4339 H       1  UNL1        0.0000
     30 H           0.3628    6.5583    0.4578 H       1  UNL1        0.0000
     31 H           1.7825    9.3025    2.5070 H       1  UNL1        0.0000
     32 H           0.0378    9.4532    2.8342 H       1  UNL1        0.0000
     33 H           1.1275    8.7673    4.0617 H       1  UNL1        0.0000
     34 SI         -3.3855    5.3115    4.5576 Si      1  UNL1        0.0000
     35 N          -1.6621    5.3213    4.9667 N.3     1  UNL1        0.0000
     36 C          -0.9720    5.1886    6.2225 C.3     1  UNL1        0.0000
     37 C           0.4265    5.8095    6.0961 C.3     1  UNL1        0.0000
     38 H           0.9211    5.8540    7.0646 H       1  UNL1        0.0000
     39 H           1.0346    5.2139    5.4206 H       1  UNL1        0.0000
     40 H           0.3273    6.8163    5.6817 H       1  UNL1        0.0000
     41 C          -0.8361    3.7127    6.6410 C.3     1  UNL1        0.0000
     42 H          -1.8217    3.2706    6.7595 H       1  UNL1        0.0000
     43 H          -0.3013    3.1606    5.8725 H       1  UNL1        0.0000
     44 H          -0.2947    3.6243    7.5805 H       1  UNL1        0.0000
     45 C          -1.7476    5.9567    7.3013 C.3     1  UNL1        0.0000
     46 H          -1.9161    6.9784    6.9496 H       1  UNL1        0.0000
     47 H          -2.7107    5.4825    7.4687 H       1  UNL1        0.0000
     48 H          -1.1981    5.9728    8.2406 H       1  UNL1        0.0000
     49 N          -3.9473    6.8885    4.8074 N.3     1  UNL1        0.0000
     50 C          -5.1274    7.4231    5.4410 C.3     1  UNL1        0.0000
     51 C          -6.3766    6.5648    5.1820 C.3     1  UNL1        0.0000
     52 H          -7.2532    7.0206    5.6373 H       1  UNL1        0.0000
     53 H          -6.5467    6.4667    4.1139 H       1  UNL1        0.0000
     54 H          -6.2386    5.5740    5.6030 H       1  UNL1        0.0000
     55 C          -4.9375    7.5453    6.9668 C.3     1  UNL1        0.0000
     56 H          -4.0536    8.1424    7.1834 H       1  UNL1        0.0000
     57 H          -5.8042    8.0164    7.4258 H       1  UNL1        0.0000
     58 H          -4.8074    6.5579    7.4015 H       1  UNL1        0.0000
     59 C          -5.3724    8.8349    4.8677 C.3     1  UNL1        0.0000
     60 H          -6.2272    9.3027    5.3534 H       1  UNL1        0.0000
     61 H          -4.4827    9.4532    5.0250 H       1  UNL1        0.0000
     62 H          -5.5734    8.7676    3.7982 H       1  UNL1        0.0000
     63 C          -4.2808    3.7064    5.0647 C.3     1  UNL1        0.0000
     64 H          -5.2181    3.6070    4.5299 H       1  UNL1        0.0000
     65 H          -3.6806    2.8270    4.8603 H       1  UNL1        0.0000
     66 H          -4.5094    3.7208    6.1246 H       1  UNL1        0.0000
@<TRIPOS>BOND
     1    24     8    1
     2    21     7    1
     3    23     8    1
     4    29    11    1
     5    30    11    1
     6     8    22    1
     7     8     5    1
     8    28    11    1
     9    16     6    1
    10    11     9    1
    11    19     7    1
    12     7     5    1
    13     7    20    1
    14     5     6    1
    15     5     2    1
    16    15     4    1
    17     6    18    1
    18     6    17    1
    19    25    10    1
    20    27    10    1
    21     9    10    1
    22     9    12    1
    23     9     3    1
    24    31    12    1
    25    10    26    1
    26     4    14    1
    27     4     1    1
    28     4    13    1
    29    32    12    1
    30     2     1    1
    31     2    34    1
    32    12    33    1
    33     3     1    1
    34     1    35    1
    35    62    59    1
    36    53    51    1
    37    64    63    1
    38    34    49    1
    39    34    35    1
    40    34    63    1
    41    49    50    1
    42    65    63    1
    43    59    61    1
    44    59    60    1
    45    59    50    1
    46    35    36    1
    47    63    66    1
    48    51    50    1
    49    51    54    1
    50    51    52    1
    51    39    37    1
    52    50    55    1
    53    40    37    1
    54    43    41    1
    55    37    36    1
    56    37    38    1
    57    36    41    1
    58    36    45    1
    59    41    42    1
    60    41    44    1
    61    46    45    1
    62    55    56    1
    63    55    58    1
    64    55    57    1
    65    45    47    1
    66    45    48    1
