@<TRIPOS>MOLECULE
2,3,35,49
 66 66 0 0 0
SMALL
GASTEIGER

@<TRIPOS>ATOM
      1 SI         -1.0428    3.9137    3.2655 Si      1  UNL1        0.0000
      2 N          -1.6355    3.8499    4.9384 N.3     1  UNL1        0.0000
      3 N          -0.4491    2.3539    3.0038 N.3     1  UNL1        0.0000
      4 C          -0.1456    5.5084    2.7638 C.3     1  UNL1        0.0000
      5 C          -0.9526    4.1845    6.1695 C.3     1  UNL1        0.0000
      6 C          -1.6862    3.5236    7.3435 C.3     1  UNL1        0.0000
      7 C           0.4794    3.6358    6.1127 C.3     1  UNL1        0.0000
      8 C          -0.8939    5.7038    6.4056 C.3     1  UNL1        0.0000
      9 C           0.7268    1.8591    2.3241 C.3     1  UNL1        0.0000
     10 C           0.5697    1.9462    0.7953 C.3     1  UNL1        0.0000
     11 C           0.8986    0.3806    2.7208 C.3     1  UNL1        0.0000
     12 C           1.9965    2.6256    2.7256 C.3     1  UNL1        0.0000
     13 H          -0.7327    6.3953    2.9709 H       1  UNL1        0.0000
     14 H           0.0795    5.4889    1.7038 H       1  UNL1        0.0000
     15 H           0.7950    5.5942    3.2942 H       1  UNL1        0.0000
     16 H          -1.7767    2.4548    7.1539 H       1  UNL1        0.0000
     17 H          -2.6837    3.9424    7.4394 H       1  UNL1        0.0000
     18 H          -1.1481    3.6826    8.2754 H       1  UNL1        0.0000
     19 H           0.4495    2.5796    5.8479 H       1  UNL1        0.0000
     20 H           0.9770    3.7556    7.0727 H       1  UNL1        0.0000
     21 H           1.0499    4.1638    5.3541 H       1  UNL1        0.0000
     22 H          -1.8985    6.1064    6.4985 H       1  UNL1        0.0000
     23 H          -0.4002    6.1909    5.5692 H       1  UNL1        0.0000
     24 H          -0.3425    5.9274    7.3165 H       1  UNL1        0.0000
     25 H           0.4767    2.9863    0.4957 H       1  UNL1        0.0000
     26 H          -0.3249    1.4135    0.4837 H       1  UNL1        0.0000
     27 H           1.4326    1.5139    0.2938 H       1  UNL1        0.0000
     28 H          -0.0190   -0.1691    2.4986 H       1  UNL1        0.0000
     29 H           1.1009    0.3086    3.7874 H       1  UNL1        0.0000
     30 H           1.7271   -0.0695    2.1777 H       1  UNL1        0.0000
     31 H           1.9134    3.6644    2.4221 H       1  UNL1        0.0000
     32 H           2.8716    2.1896    2.2488 H       1  UNL1        0.0000
     33 H           2.1271    2.5884    3.8029 H       1  UNL1        0.0000
     34 SI         -3.3589    3.9138    4.5114 Si      1  UNL1        0.0000
     35 N          -2.7661    3.8498    2.8385 N.3     1  UNL1        0.0000
     36 C          -3.4490    4.1842    1.6073 C.3     1  UNL1        0.0000
     37 C          -2.7149    3.5239    0.4334 C.3     1  UNL1        0.0000
     38 H          -2.6243    2.4550    0.6226 H       1  UNL1        0.0000
     39 H          -1.7176    3.9429    0.3377 H       1  UNL1        0.0000
     40 H          -3.2529    3.6830   -0.4986 H       1  UNL1        0.0000
     41 C          -4.8807    3.6348    1.6639 C.3     1  UNL1        0.0000
     42 H          -4.8503    2.5786    1.9286 H       1  UNL1        0.0000
     43 H          -5.3783    3.7545    0.7038 H       1  UNL1        0.0000
     44 H          -5.4516    4.1625    2.4225 H       1  UNL1        0.0000
     45 C          -3.5084    5.7035    1.3714 C.3     1  UNL1        0.0000
     46 H          -2.5039    6.1067    1.2789 H       1  UNL1        0.0000
     47 H          -4.0025    6.1903    2.2077 H       1  UNL1        0.0000
     48 H          -4.0596    5.9270    0.4604 H       1  UNL1        0.0000
     49 N          -3.9529    2.3543    4.7733 N.3     1  UNL1        0.0000
     50 C          -5.1285    1.8594    5.4534 C.3     1  UNL1        0.0000
     51 C          -4.9702    1.9452    6.9821 C.3     1  UNL1        0.0000
     52 H          -4.8765    2.9850    7.2825 H       1  UNL1        0.0000
     53 H          -4.0756    1.4118    7.2926 H       1  UNL1        0.0000
     54 H          -5.8330    1.5129    7.4838 H       1  UNL1        0.0000
     55 C          -5.3011    0.3813    5.0555 C.3     1  UNL1        0.0000
     56 H          -4.3833   -0.1688    5.2760 H       1  UNL1        0.0000
     57 H          -5.5048    0.3102    3.9892 H       1  UNL1        0.0000
     58 H          -6.1290   -0.0691    5.5993 H       1  UNL1        0.0000
     59 C          -6.3980    2.6269    5.0531 C.3     1  UNL1        0.0000
     60 H          -6.3143    3.6653    5.3577 H       1  UNL1        0.0000
     61 H          -7.2730    2.1907    5.5299 H       1  UNL1        0.0000
     62 H          -6.5290    2.5908    3.9758 H       1  UNL1        0.0000
     63 C          -4.2560    5.5087    5.0129 C.3     1  UNL1        0.0000
     64 H          -3.6689    6.3956    4.8054 H       1  UNL1        0.0000
     65 H          -4.4808    5.4894    6.0728 H       1  UNL1        0.0000
     66 H          -5.1966    5.5944    4.4825 H       1  UNL1        0.0000
@<TRIPOS>BOND
     1    40    37    1
     2    27    10    1
     3    39    37    1
     4    37    38    1
     5    37    36    1
     6    48    45    1
     7    26    10    1
     8    25    10    1
     9    43    41    1
    10    10     9    1
    11    46    45    1
    12    45    36    1
    13    45    47    1
    14    36    41    1
    15    36    35    1
    16    41    42    1
    17    41    44    1
    18    14     4    1
    19    30    11    1
    20    32    12    1
    21     9    11    1
    22     9    12    1
    23     9     3    1
    24    31    12    1
    25    28    11    1
    26    11    29    1
    27    12    33    1
    28     4    13    1
    29     4     1    1
    30     4    15    1
    31    35     1    1
    32    35    34    1
    33     3     1    1
    34     1     2    1
    35    62    59    1
    36    57    55    1
    37    66    63    1
    38    34    49    1
    39    34     2    1
    40    34    63    1
    41    49    50    1
    42    64    63    1
    43     2     5    1
    44    63    65    1
    45    59    60    1
    46    59    50    1
    47    59    61    1
    48    55    56    1
    49    55    50    1
    50    55    58    1
    51    21     7    1
    52    50    51    1
    53    23     8    1
    54    19     7    1
    55     7     5    1
    56     7    20    1
    57     5     8    1
    58     5     6    1
    59     8    22    1
    60     8    24    1
    61    51    52    1
    62    51    53    1
    63    51    54    1
    64    16     6    1
    65     6    17    1
    66     6    18    1
