@<TRIPOS>MOLECULE
2,3,22,40
 61 60 0 0 0
SMALL
GASTEIGER

@<TRIPOS>ATOM
      1 SI          3.7906    1.7956    6.3336 Si      1  UNL1        0.0000
      2 N           2.9110    2.5114    5.0210 N.3     1  UNL1        0.0000
      3 N           2.3089    2.3093    2.3087 N.3     1  UNL1        0.0000
      4 C           1.6257    2.0018    4.6145 C.3     1  UNL1        0.0000
      5 C           1.7304    1.3485    3.2302 C.3     1  UNL1        0.0000
      6 C           5.6113    1.5182    5.7913 C.3     1  UNL1        0.0000
      7 C           3.7060    2.8929    7.8982 C.3     1  UNL1        0.0000
      8 C           3.0585    0.0819    6.7974 C.3     1  UNL1        0.0000
      9 H           1.2337    1.2654    5.3250 H       1  UNL1        0.0000
     10 H           0.8955    2.8294    4.5693 H       1  UNL1        0.0000
     11 H           0.7463    0.9883    2.8880 H       1  UNL1        0.0000
     12 H           2.3991    0.4857    3.3152 H       1  UNL1        0.0000
     13 H           5.9231    0.4825    5.8939 H       1  UNL1        0.0000
     14 H           5.7627    1.8252    4.7539 H       1  UNL1        0.0000
     15 H           6.2738    2.1245    6.4015 H       1  UNL1        0.0000
     16 H           4.3397    2.4920    8.6817 H       1  UNL1        0.0000
     17 H           4.0491    3.9021    7.6782 H       1  UNL1        0.0000
     18 H           2.6959    2.9593    8.2918 H       1  UNL1        0.0000
     19 H           2.0761    0.1746    7.2503 H       1  UNL1        0.0000
     20 H           2.9667   -0.5727    5.9349 H       1  UNL1        0.0000
     21 H           3.6982   -0.4160    7.5182 H       1  UNL1        0.0000
     22 N           5.0213    2.9107    2.5104 N.3     1  UNL1        0.0000
     23 SI          6.3347    3.7894    1.7950 Si      1  UNL1        0.0000
     24 C           5.7935    5.6104    1.5175 C.3     1  UNL1        0.0000
     25 H           5.8947    5.9217    0.4816 H       1  UNL1        0.0000
     26 H           4.7568    5.7626    1.8261 H       1  UNL1        0.0000
     27 H           6.4051    6.2727    2.1225 H       1  UNL1        0.0000
     28 C           7.8992    3.7031    2.8923 C.3     1  UNL1        0.0000
     29 H           8.6829    4.3371    2.4924 H       1  UNL1        0.0000
     30 H           7.6790    4.0452    3.9018 H       1  UNL1        0.0000
     31 H           8.2924    2.6928    2.9577 H       1  UNL1        0.0000
     32 C           6.7981    3.0572    0.0813 C.3     1  UNL1        0.0000
     33 H           7.2502    2.0744    0.1738 H       1  UNL1        0.0000
     34 H           5.9356    2.9663   -0.5734 H       1  UNL1        0.0000
     35 H           7.5195    3.6963   -0.4164 H       1  UNL1        0.0000
     36 C           4.6145    1.6255    2.0009 C.3     1  UNL1        0.0000
     37 C           3.2302    1.7307    1.3478 C.3     1  UNL1        0.0000
     38 C           1.3481    3.2309    1.7303 C.3     1  UNL1        0.0000
     39 C           2.0016    4.6151    1.6252 C.3     1  UNL1        0.0000
     40 N           2.5110    5.0218    2.9104 N.3     1  UNL1        0.0000
     41 SI          1.7942    6.3337    3.7901 Si      1  UNL1        0.0000
     42 C           1.5183    5.7918    5.6112 C.3     1  UNL1        0.0000
     43 H           0.4836    5.8964    5.9245 H       1  UNL1        0.0000
     44 H           1.8234    4.7541    5.7624 H       1  UNL1        0.0000
     45 H           2.1265    6.4005    6.2728 H       1  UNL1        0.0000
     46 C           2.8896    7.8996    3.7052 C.3     1  UNL1        0.0000
     47 H           2.4903    8.6811    4.3422 H       1  UNL1        0.0000
     48 H           3.9002    7.6797    4.0442 H       1  UNL1        0.0000
     49 H           2.9519    8.2957    2.6959 H       1  UNL1        0.0000
     50 C           0.0797    6.7951    3.0586 C.3     1  UNL1        0.0000
     51 H           0.1714    7.2477    2.0760 H       1  UNL1        0.0000
     52 H          -0.5738    5.9317    2.9675 H       1  UNL1        0.0000
     53 H          -0.4191    7.5156    3.6980 H       1  UNL1        0.0000
     54 H           1.2656    5.3256    1.2328 H       1  UNL1        0.0000
     55 H           2.8294    4.5695    0.8952 H       1  UNL1        0.0000
     56 H           0.9877    2.8886    0.7463 H       1  UNL1        0.0000
     57 H           0.4855    3.3163    2.3991 H       1  UNL1        0.0000
     58 H           2.8877    0.7468    0.9875 H       1  UNL1        0.0000
     59 H           3.3154    2.3995    0.4850 H       1  UNL1        0.0000
     60 H           5.3248    1.2332    1.2647 H       1  UNL1        0.0000
     61 H           4.5690    0.8954    2.8286 H       1  UNL1        0.0000
@<TRIPOS>BOND
     1    34    32    1
     2    35    32    1
     3    32    33    1
     4    32    23    1
     5    25    24    1
     6    59    37    1
     7    56    38    1
     8    55    39    1
     9    58    37    1
    10    54    39    1
    11    60    36    1
    12    37    36    1
    13    37     3    1
    14    24    23    1
    15    24    26    1
    16    24    27    1
    17    39    38    1
    18    39    40    1
    19    38     3    1
    20    38    57    1
    21    23    22    1
    22    23    28    1
    23    36    22    1
    24    36    61    1
    25    51    50    1
    26     3     5    1
    27    29    28    1
    28    49    46    1
    29    11     5    1
    30    28    31    1
    31    28    30    1
    32    40    41    1
    33    52    50    1
    34    50    53    1
    35    50    41    1
    36     5    12    1
    37     5     4    1
    38    46    41    1
    39    46    48    1
    40    46    47    1
    41    41    42    1
    42    10     4    1
    43     4     2    1
    44     4     9    1
    45    14     6    1
    46     2     1    1
    47    42    44    1
    48    42    43    1
    49    42    45    1
    50     6    13    1
    51     6     1    1
    52     6    15    1
    53    20     8    1
    54     1     8    1
    55     1     7    1
    56     8    19    1
    57     8    21    1
    58    17     7    1
    59     7    18    1
    60     7    16    1
