@<TRIPOS>MOLECULE
4,5,6,7
 61 60 0 0 0
SMALL
GASTEIGER

@<TRIPOS>ATOM
      1 SI          3.5207    0.8102    2.1599 Si      1  UNL1        0.0000
      2 SI          0.1774    3.7110    0.8904 Si      1  UNL1        0.0000
      3 SI         -1.5309    3.6387    5.6759 Si      1  UNL1        0.0000
      4 N           2.9075    2.2630    2.8595 N.3     1  UNL1        0.0000
      5 N           0.5885    3.9372    2.5434 N.3     1  UNL1        0.0000
      6 N           0.1706    3.7263    5.3945 N.3     1  UNL1        0.0000
      7 N           2.4536    4.5733    4.3391 N.3     1  UNL1        0.0000
      8 C           3.7172    3.4441    2.6078 C.3     1  UNL1        0.0000
      9 C           3.8200    4.2577    3.9034 C.3     1  UNL1        0.0000
     10 C           0.5437    5.3215    2.9864 C.3     1  UNL1        0.0000
     11 C           1.9192    5.7036    3.5530 C.3     1  UNL1        0.0000
     12 C           0.8611    4.7300    6.1901 C.3     1  UNL1        0.0000
     13 C           2.3397    4.8492    5.7754 C.3     1  UNL1        0.0000
     14 C           2.3387   -0.6257    2.5806 C.3     1  UNL1        0.0000
     15 C           5.3050    0.4134    2.7601 C.3     1  UNL1        0.0000
     16 C           3.7131    0.9503    0.2488 C.3     1  UNL1        0.0000
     17 C           1.4664    4.4977   -0.3148 C.3     1  UNL1        0.0000
     18 C          -1.4848    4.5781    0.4536 C.3     1  UNL1        0.0000
     19 C          -0.0041    1.8808    0.3970 C.3     1  UNL1        0.0000
     20 C          -2.3556    2.6436    4.2762 C.3     1  UNL1        0.0000
     21 C          -2.0234    2.9465    7.3951 C.3     1  UNL1        0.0000
     22 C          -2.3612    5.3837    5.6394 C.3     1  UNL1        0.0000
     23 H           4.7346    3.1923    2.2813 H       1  UNL1        0.0000
     24 H           3.2590    4.0540    1.8109 H       1  UNL1        0.0000
     25 H           4.4223    5.1697    3.7665 H       1  UNL1        0.0000
     26 H           4.3096    3.6235    4.6468 H       1  UNL1        0.0000
     27 H           0.2989    6.0224    2.1777 H       1  UNL1        0.0000
     28 H          -0.2253    5.4419    3.7629 H       1  UNL1        0.0000
     29 H           1.8580    6.6114    4.1656 H       1  UNL1        0.0000
     30 H           2.5885    5.9081    2.7127 H       1  UNL1        0.0000
     31 H           0.3775    5.7147    6.0781 H       1  UNL1        0.0000
     32 H           0.8233    4.4822    7.2628 H       1  UNL1        0.0000
     33 H           2.9133    4.1009    6.3242 H       1  UNL1        0.0000
     34 H           2.7313    5.8492    6.0236 H       1  UNL1        0.0000
     35 H           1.7245   -0.9045    1.7308 H       1  UNL1        0.0000
     36 H           2.8985   -1.5061    2.8767 H       1  UNL1        0.0000
     37 H           1.6765   -0.3482    3.4015 H       1  UNL1        0.0000
     38 H           5.3992    0.4482    3.8406 H       1  UNL1        0.0000
     39 H           5.6007   -0.5801    2.4392 H       1  UNL1        0.0000
     40 H           6.0296    1.1080    2.3435 H       1  UNL1        0.0000
     41 H           4.4426    1.7115   -0.0135 H       1  UNL1        0.0000
     42 H           4.0685    0.0121   -0.1648 H       1  UNL1        0.0000
     43 H           2.7856    1.2014   -0.2552 H       1  UNL1        0.0000
     44 H           2.3847    3.9195   -0.3683 H       1  UNL1        0.0000
     45 H           1.0603    4.5509   -1.3201 H       1  UNL1        0.0000
     46 H           1.7294    5.5120   -0.0245 H       1  UNL1        0.0000
     47 H          -1.3930    5.6600    0.4671 H       1  UNL1        0.0000
     48 H          -1.8135    4.2982   -0.5416 H       1  UNL1        0.0000
     49 H          -2.2772    4.3111    1.1469 H       1  UNL1        0.0000
     50 H          -0.9642    1.4821    0.7048 H       1  UNL1        0.0000
     51 H           0.0659    1.7720   -0.6806 H       1  UNL1        0.0000
     52 H           0.7681    1.2738    0.8566 H       1  UNL1        0.0000
     53 H          -3.4287    2.8066    4.2863 H       1  UNL1        0.0000
     54 H          -1.9752    2.9411    3.3014 H       1  UNL1        0.0000
     55 H          -2.1864    1.5794    4.3977 H       1  UNL1        0.0000
     56 H          -3.0974    3.0114    7.5359 H       1  UNL1        0.0000
     57 H          -1.7380    1.9076    7.5162 H       1  UNL1        0.0000
     58 H          -1.5580    3.5085    8.2000 H       1  UNL1        0.0000
     59 H          -1.9667    6.0393    6.4102 H       1  UNL1        0.0000
     60 H          -2.2520    5.8912    4.6847 H       1  UNL1        0.0000
     61 H          -3.4251    5.2846    5.8274 H       1  UNL1        0.0000
@<TRIPOS>BOND
     1    45    17    1
     2    51    19    1
     3    48    18    1
     4    44    17    1
     5    17    46    1
     6    17     2    1
     7    43    16    1
     8    42    16    1
     9    41    16    1
    10    16     1    1
    11    19    50    1
    12    19    52    1
    13    19     2    1
    14    18    47    1
    15    18     2    1
    16    18    49    1
    17     2     5    1
    18    35    14    1
    19    24     8    1
    20     1    14    1
    21     1    15    1
    22     1     4    1
    23    27    10    1
    24    23     8    1
    25    40    15    1
    26    39    15    1
    27     5    10    1
    28    14    36    1
    29    14    37    1
    30     8     4    1
    31     8     9    1
    32    30    11    1
    33    15    38    1
    34    10    11    1
    35    10    28    1
    36    54    20    1
    37    11    29    1
    38    11     7    1
    39    25     9    1
    40     9     7    1
    41     9    26    1
    42    20    53    1
    43    20    55    1
    44    20     3    1
    45     7    13    1
    46    60    22    1
    47     6     3    1
    48     6    12    1
    49    22     3    1
    50    22    61    1
    51    22    59    1
    52     3    21    1
    53    13    34    1
    54    13    12    1
    55    13    33    1
    56    31    12    1
    57    12    32    1
    58    21    57    1
    59    21    56    1
    60    21    58    1
