@<TRIPOS>MOLECULE
4,5,6,7
 61 60 0 0 0
SMALL
GASTEIGER

@<TRIPOS>ATOM
      1 SI          7.1982    8.5018    3.0669 Si      1  UNL1        0.0000
      2 SI          2.4213   11.1411    4.0087 Si      1  UNL1        0.0000
      3 SI          7.0359   13.0075    7.2452 Si      1  UNL1        0.0000
      4 N           6.0671    9.7966    3.1840 N.3     1  UNL1        0.0000
      5 N           3.9020   11.9024    4.4585 N.3     1  UNL1        0.0000
      6 N           7.1000   12.0812    5.7743 N.3     1  UNL1        0.0000
      7 N           6.1973   12.6140    3.2118 N.3     1  UNL1        0.0000
      8 C           5.7722   10.5669    1.9946 C.3     1  UNL1        0.0000
      9 C           6.5914   11.8614    2.0188 C.3     1  UNL1        0.0000
     10 C           4.0996   13.3069    4.1861 C.3     1  UNL1        0.0000
     11 C           5.0076   13.4343    2.9558 C.3     1  UNL1        0.0000
     12 C           8.0431   12.5136    4.7585 C.3     1  UNL1        0.0000
     13 C           7.3065   13.4033    3.7513 C.3     1  UNL1        0.0000
     14 C           6.4425    6.7786    3.4237 C.3     1  UNL1        0.0000
     15 C           8.7124    8.8472    4.1989 C.3     1  UNL1        0.0000
     16 C           7.9199    8.3541    1.2918 C.3     1  UNL1        0.0000
     17 C           1.8189   11.7215    2.2681 C.3     1  UNL1        0.0000
     18 C           0.9554   11.5221    5.1795 C.3     1  UNL1        0.0000
     19 C           2.7732    9.2690    3.9270 C.3     1  UNL1        0.0000
     20 C           8.7810   13.7298    7.6113 C.3     1  UNL1        0.0000
     21 C           5.8980   14.5666    7.2165 C.3     1  UNL1        0.0000
     22 C           6.5585   11.9844    8.7808 C.3     1  UNL1        0.0000
     23 H           4.6985   10.8099    1.9646 H       1  UNL1        0.0000
     24 H           6.0058   10.0144    1.0777 H       1  UNL1        0.0000
     25 H           7.6476   11.5838    2.0936 H       1  UNL1        0.0000
     26 H           6.4552   12.4583    1.1041 H       1  UNL1        0.0000
     27 H           4.5842   13.7899    5.0479 H       1  UNL1        0.0000
     28 H           3.1542   13.8314    3.9998 H       1  UNL1        0.0000
     29 H           4.4636   13.0358    2.0959 H       1  UNL1        0.0000
     30 H           5.2744   14.4778    2.7408 H       1  UNL1        0.0000
     31 H           8.8880   13.0659    5.1840 H       1  UNL1        0.0000
     32 H           8.4569   11.6360    4.2339 H       1  UNL1        0.0000
     33 H           6.9099   14.2652    4.2959 H       1  UNL1        0.0000
     34 H           7.9712   13.7694    2.9548 H       1  UNL1        0.0000
     35 H           6.6198    6.4865    4.4514 H       1  UNL1        0.0000
     36 H           6.8976    6.0262    2.7875 H       1  UNL1        0.0000
     37 H           5.3712    6.7541    3.2497 H       1  UNL1        0.0000
     38 H           9.5611    9.2460    3.6485 H       1  UNL1        0.0000
     39 H           9.0440    7.9367    4.6858 H       1  UNL1        0.0000
     40 H           8.4480    9.5512    4.9880 H       1  UNL1        0.0000
     41 H           8.3515    9.2835    0.9312 H       1  UNL1        0.0000
     42 H           7.1647    8.0403    0.5781 H       1  UNL1        0.0000
     43 H           8.7052    7.6060    1.2756 H       1  UNL1        0.0000
     44 H           1.7628   12.8046    2.2054 H       1  UNL1        0.0000
     45 H           0.8221   11.3404    2.0731 H       1  UNL1        0.0000
     46 H           2.4568   11.3764    1.4587 H       1  UNL1        0.0000
     47 H           0.7808   12.5903    5.2698 H       1  UNL1        0.0000
     48 H           1.1358   11.1349    6.1765 H       1  UNL1        0.0000
     49 H           0.0406   11.0727    4.8071 H       1  UNL1        0.0000
     50 H           3.8105    9.0803    3.6414 H       1  UNL1        0.0000
     51 H           2.1231    8.7716    3.2144 H       1  UNL1        0.0000
     52 H           2.6008    8.8158    4.8968 H       1  UNL1        0.0000
     53 H           9.0368   14.5624    6.9620 H       1  UNL1        0.0000
     54 H           9.5610   12.9799    7.5172 H       1  UNL1        0.0000
     55 H           8.8141   14.1008    8.6301 H       1  UNL1        0.0000
     56 H           6.0824   15.2245    6.3699 H       1  UNL1        0.0000
     57 H           6.0760   15.1513    8.1140 H       1  UNL1        0.0000
     58 H           4.8450   14.3013    7.2166 H       1  UNL1        0.0000
     59 H           6.0864   12.6298    9.5132 H       1  UNL1        0.0000
     60 H           7.4295   11.5396    9.2494 H       1  UNL1        0.0000
     61 H           5.8635   11.1867    8.5499 H       1  UNL1        0.0000
@<TRIPOS>BOND
     1    42    16    1
     2    41    16    1
     3    24     8    1
     4    26     9    1
     5    43    16    1
     6    16     1    1
     7    46    17    1
     8    23     8    1
     9     8     9    1
    10     8     4    1
    11     9    25    1
    12     9     7    1
    13    45    17    1
    14    29    11    1
    15    44    17    1
    16    17     2    1
    17    30    11    1
    18    36    14    1
    19    34    13    1
    20    11     7    1
    21    11    10    1
    22     1     4    1
    23     1    14    1
    24     1    15    1
    25     7    13    1
    26    51    19    1
    27    37    14    1
    28    14    35    1
    29    50    19    1
    30    38    15    1
    31    13    33    1
    32    13    12    1
    33    19     2    1
    34    19    52    1
    35    28    10    1
    36     2     5    1
    37     2    18    1
    38    10     5    1
    39    10    27    1
    40    15    39    1
    41    15    40    1
    42    32    12    1
    43    12    31    1
    44    12     6    1
    45    49    18    1
    46    18    47    1
    47    18    48    1
    48     6     3    1
    49    56    21    1
    50    53    20    1
    51    21    58    1
    52    21     3    1
    53    21    57    1
    54     3    20    1
    55     3    22    1
    56    54    20    1
    57    20    55    1
    58    61    22    1
    59    22    60    1
    60    22    59    1
