@<TRIPOS>MOLECULE
1,2,3,4
 61 60 0 0 0
SMALL
GASTEIGER

@<TRIPOS>ATOM
      1 N           7.5844   12.7874    2.4253 N.3     1  UNL1        0.0000
      2 N           6.7722   11.3848    5.5690 N.3     1  UNL1        0.0000
      3 N           4.3753   13.1669    3.6952 N.3     1  UNL1        0.0000
      4 N           6.8140   14.0668    4.8023 N.3     1  UNL1        0.0000
      5 SI          8.8467   11.7409    1.9624 Si      1  UNL1        0.0000
      6 SI          5.6632   10.5713    6.5681 Si      1  UNL1        0.0000
      7 SI          3.7293   13.6623    2.1962 Si      1  UNL1        0.0000
      8 C           7.7002   14.2183    2.5200 C.3     1  UNL1        0.0000
      9 H           6.7820   14.6930    2.1322 H       1  UNL1        0.0000
     10 H           8.5466   14.6100    1.9367 H       1  UNL1        0.0000
     11 C           7.7975   12.2494    6.1019 C.3     1  UNL1        0.0000
     12 H           8.6917   12.2147    5.4568 H       1  UNL1        0.0000
     13 H           8.1088   11.9594    7.1169 H       1  UNL1        0.0000
     14 C           4.3665   14.0495    4.8395 C.3     1  UNL1        0.0000
     15 H           4.3482   13.4556    5.7701 H       1  UNL1        0.0000
     16 H           3.4847   14.7087    4.8520 H       1  UNL1        0.0000
     17 C           7.8994   14.6284    3.9941 C.3     1  UNL1        0.0000
     18 H           8.8481   14.1938    4.3244 H       1  UNL1        0.0000
     19 H           7.9585   15.7236    4.1037 H       1  UNL1        0.0000
     20 C           7.2654   13.6955    6.1458 C.3     1  UNL1        0.0000
     21 H           6.4108   13.7082    6.8276 H       1  UNL1        0.0000
     22 H           8.0254   14.3981    6.5245 H       1  UNL1        0.0000
     23 C           5.6323   14.9314    4.8341 C.3     1  UNL1        0.0000
     24 H           5.6055   15.5358    3.9243 H       1  UNL1        0.0000
     25 H           5.6521   15.6097    5.7024 H       1  UNL1        0.0000
     26 C          10.5273   12.6265    1.6628 C.3     1  UNL1        0.0000
     27 H          10.8589   13.1787    2.5369 H       1  UNL1        0.0000
     28 H          10.4496   13.3289    0.8398 H       1  UNL1        0.0000
     29 H          11.3051   11.9156    1.4089 H       1  UNL1        0.0000
     30 C           8.3955   10.8191    0.3391 C.3     1  UNL1        0.0000
     31 H           8.2619   11.4985   -0.4975 H       1  UNL1        0.0000
     32 H           7.4647   10.2723    0.4742 H       1  UNL1        0.0000
     33 H           9.1597   10.1007    0.0614 H       1  UNL1        0.0000
     34 C           9.1078   10.4152    3.3351 C.3     1  UNL1        0.0000
     35 H           9.8930   10.6759    4.0412 H       1  UNL1        0.0000
     36 H           9.3840    9.4631    2.8920 H       1  UNL1        0.0000
     37 H           8.1696   10.2758    3.8874 H       1  UNL1        0.0000
     38 C           6.3027    8.8560    7.1665 C.3     1  UNL1        0.0000
     39 H           6.8066    8.3293    6.3614 H       1  UNL1        0.0000
     40 H           5.4918    8.2265    7.5183 H       1  UNL1        0.0000
     41 H           7.0131    8.9587    7.9812 H       1  UNL1        0.0000
     42 C           4.0992   10.3230    5.4902 C.3     1  UNL1        0.0000
     43 H           4.2855    9.5320    4.7689 H       1  UNL1        0.0000
     44 H           3.8467   11.2366    4.9412 H       1  UNL1        0.0000
     45 H           3.2382   10.0278    6.0828 H       1  UNL1        0.0000
     46 C           5.1193   11.4804    8.1846 C.3     1  UNL1        0.0000
     47 H           5.9865   11.8171    8.7453 H       1  UNL1        0.0000
     48 H           4.5558   10.8200    8.8352 H       1  UNL1        0.0000
     49 H           4.4964   12.3493    7.9880 H       1  UNL1        0.0000
     50 C           1.8300   13.3464    2.0808 C.3     1  UNL1        0.0000
     51 H           1.5248   12.5139    2.7063 H       1  UNL1        0.0000
     52 H           1.5309   13.1211    1.0626 H       1  UNL1        0.0000
     53 H           1.2658   14.2172    2.4009 H       1  UNL1        0.0000
     54 C           4.6699   12.6827    0.8428 C.3     1  UNL1        0.0000
     55 H           5.6811   12.4190    1.1794 H       1  UNL1        0.0000
     56 H           4.7543   13.2613   -0.0724 H       1  UNL1        0.0000
     57 H           4.1467   11.7658    0.5906 H       1  UNL1        0.0000
     58 C           3.8763   15.5377    1.7394 C.3     1  UNL1        0.0000
     59 H           4.8925   15.8394    1.4986 H       1  UNL1        0.0000
     60 H           3.5293   16.1656    2.5555 H       1  UNL1        0.0000
     61 H           3.2606   15.7700    0.8762 H       1  UNL1        0.0000
@<TRIPOS>BOND
     1    31    30    1
     2    56    54    1
     3    33    30    1
     4    30    32    1
     5    30     5    1
     6    57    54    1
     7    28    26    1
     8    54    55    1
     9    54     7    1
    10    61    58    1
    11    52    50    1
    12    29    26    1
    13    59    58    1
    14    26     5    1
    15    26    27    1
    16    58     7    1
    17    58    60    1
    18    10     8    1
    19     5     1    1
    20     5    34    1
    21    50     7    1
    22    50    53    1
    23    50    51    1
    24     9     8    1
    25     7     3    1
    26     1     8    1
    27     8    17    1
    28    36    34    1
    29    34    37    1
    30    34    35    1
    31     3    14    1
    32    24    23    1
    33    17    19    1
    34    17    18    1
    35    17     4    1
    36    43    42    1
    37     4    23    1
    38     4    20    1
    39    23    14    1
    40    23    25    1
    41    14    16    1
    42    14    15    1
    43    44    42    1
    44    12    11    1
    45    42    45    1
    46    42     6    1
    47     2    11    1
    48     2     6    1
    49    11    20    1
    50    11    13    1
    51    20    22    1
    52    20    21    1
    53    39    38    1
    54     6    38    1
    55     6    46    1
    56    38    40    1
    57    38    41    1
    58    49    46    1
    59    46    47    1
    60    46    48    1
