@<TRIPOS>MOLECULE
1,2,3,4
 61 60 0 0 0
SMALL
GASTEIGER

@<TRIPOS>ATOM
      1 N           7.0235    3.6625    4.2732 N.3     1  UNL1        0.0000
      2 N           4.6778    5.0781    6.2219 N.3     1  UNL1        0.0000
      3 N           5.2199    1.3030    6.0105 N.3     1  UNL1        0.0000
      4 N           6.7953    3.2982    7.0504 N.3     1  UNL1        0.0000
      5 SI          7.3149    4.9789    3.2296 Si      1  UNL1        0.0000
      6 SI          3.5515    6.3153    5.8658 Si      1  UNL1        0.0000
      7 SI          5.7730   -0.0073    5.0673 Si      1  UNL1        0.0000
      8 C           8.1320    3.1236    5.0301 C.3     1  UNL1        0.0000
      9 H           9.1054    3.3812    4.5876 H       1  UNL1        0.0000
     10 H           8.0629    2.0237    5.0604 H       1  UNL1        0.0000
     11 C           5.6926    5.4969    7.1729 C.3     1  UNL1        0.0000
     12 H           5.2907    6.2050    7.9154 H       1  UNL1        0.0000
     13 H           6.5167    6.0260    6.6603 H       1  UNL1        0.0000
     14 C           5.5128    1.2672    7.4264 C.3     1  UNL1        0.0000
     15 H           5.5760    0.2415    7.8178 H       1  UNL1        0.0000
     16 H           4.7226    1.7780    7.9957 H       1  UNL1        0.0000
     17 C           8.0871    3.6705    6.4688 C.3     1  UNL1        0.0000
     18 H           8.9254    3.2942    7.0770 H       1  UNL1        0.0000
     19 H           8.1638    4.7589    6.4108 H       1  UNL1        0.0000
     20 C           6.2604    4.3091    7.9581 C.3     1  UNL1        0.0000
     21 H           7.0303    4.6574    8.6702 H       1  UNL1        0.0000
     22 H           5.4411    3.8605    8.5316 H       1  UNL1        0.0000
     23 C           6.8513    1.9800    7.6851 C.3     1  UNL1        0.0000
     24 H           7.0711    2.0605    8.7621 H       1  UNL1        0.0000
     25 H           7.6392    1.3889    7.2145 H       1  UNL1        0.0000
     26 C           8.2496    6.4828    4.0063 C.3     1  UNL1        0.0000
     27 H           7.6750    6.9450    4.8053 H       1  UNL1        0.0000
     28 H           8.4453    7.2505    3.2645 H       1  UNL1        0.0000
     29 H           9.2098    6.1839    4.4186 H       1  UNL1        0.0000
     30 C           8.4022    4.4636    1.7231 C.3     1  UNL1        0.0000
     31 H           7.9427    3.6526    1.1663 H       1  UNL1        0.0000
     32 H           9.3850    4.1255    2.0384 H       1  UNL1        0.0000
     33 H           8.5496    5.2911    1.0370 H       1  UNL1        0.0000
     34 C           5.6302    5.6005    2.6032 C.3     1  UNL1        0.0000
     35 H           4.9808    4.7634    2.3613 H       1  UNL1        0.0000
     36 H           5.7421    6.2049    1.7092 H       1  UNL1        0.0000
     37 H           5.1382    6.2064    3.3562 H       1  UNL1        0.0000
     38 C           4.3645    8.0460    5.6284 C.3     1  UNL1        0.0000
     39 H           5.1392    8.0334    4.8670 H       1  UNL1        0.0000
     40 H           4.8231    8.3862    6.5523 H       1  UNL1        0.0000
     41 H           3.6335    8.7937    5.3378 H       1  UNL1        0.0000
     42 C           2.3024    6.5837    7.3174 C.3     1  UNL1        0.0000
     43 H           1.6454    5.7285    7.4524 H       1  UNL1        0.0000
     44 H           1.6732    7.4491    7.1354 H       1  UNL1        0.0000
     45 H           2.8149    6.7535    8.2606 H       1  UNL1        0.0000
     46 C           2.5083    5.9487    4.3065 C.3     1  UNL1        0.0000
     47 H           1.4883    5.6848    4.5677 H       1  UNL1        0.0000
     48 H           2.9289    5.1423    3.7129 H       1  UNL1        0.0000
     49 H           2.4541    6.8267    3.6723 H       1  UNL1        0.0000
     50 C           6.0669    0.6114    3.2797 C.3     1  UNL1        0.0000
     51 H           5.1981    0.4449    2.6521 H       1  UNL1        0.0000
     52 H           6.8962    0.0856    2.8157 H       1  UNL1        0.0000
     53 H           6.2901    1.6839    3.2803 H       1  UNL1        0.0000
     54 C           7.4437   -0.8306    5.6055 C.3     1  UNL1        0.0000
     55 H           8.3156   -0.2140    5.4022 H       1  UNL1        0.0000
     56 H           7.5903   -1.7710    5.0831 H       1  UNL1        0.0000
     57 H           7.4403   -1.0575    6.6682 H       1  UNL1        0.0000
     58 C           4.5704   -1.5133    5.1261 C.3     1  UNL1        0.0000
     59 H           3.5357   -1.2012    5.2207 H       1  UNL1        0.0000
     60 H           4.7943   -2.1489    5.9778 H       1  UNL1        0.0000
     61 H           4.6545   -2.1279    4.2358 H       1  UNL1        0.0000
@<TRIPOS>BOND
     1    33    30    1
     2    31    30    1
     3    36    34    1
     4    30    32    1
     5    30     5    1
     6    35    34    1
     7    34     5    1
     8    34    37    1
     9    51    50    1
    10    52    50    1
    11     5    26    1
    12     5     1    1
    13    28    26    1
    14    50    53    1
    15    50     7    1
    16    49    46    1
    17    48    46    1
    18    26    29    1
    19    26    27    1
    20    61    58    1
    21     1     8    1
    22    46    47    1
    23    46     6    1
    24     9     8    1
    25    39    38    1
    26     8    10    1
    27     8    17    1
    28     7    58    1
    29     7    54    1
    30     7     3    1
    31    56    54    1
    32    58    59    1
    33    58    60    1
    34    41    38    1
    35    55    54    1
    36    54    57    1
    37    38     6    1
    38    38    40    1
    39     6     2    1
    40     6    42    1
    41     3    14    1
    42     2    11    1
    43    19    17    1
    44    17     4    1
    45    17    18    1
    46    13    11    1
    47     4    23    1
    48     4    20    1
    49    44    42    1
    50    11    12    1
    51    11    20    1
    52    25    23    1
    53    42    43    1
    54    42    45    1
    55    14    23    1
    56    14    15    1
    57    14    16    1
    58    23    24    1
    59    20    22    1
    60    20    21    1
