@<TRIPOS>MOLECULE
4,5,6,7
 61 60 0 0 0
SMALL
GASTEIGER

@<TRIPOS>ATOM
      1 SI          4.3238    9.3232    7.9010 Si      1  UNL1        0.0000
      2 SI          8.9390   11.1486    6.3233 Si      1  UNL1        0.0000
      3 SI          6.6230   10.5255    1.6244 Si      1  UNL1        0.0000
      4 N           4.8409   10.4220    6.7004 N.3     1  UNL1        0.0000
      5 N           7.6398   11.5792    5.3172 N.3     1  UNL1        0.0000
      6 N           5.5692   10.5131    2.9553 N.3     1  UNL1        0.0000
      7 N           5.1114   12.5367    4.7380 N.3     1  UNL1        0.0000
      8 C           4.6523   11.8220    7.0362 C.3     1  UNL1        0.0000
      9 H           5.6077   12.2694    7.3721 H       1  UNL1        0.0000
     10 H           3.9267   11.9622    7.8513 H       1  UNL1        0.0000
     11 C           7.5435   12.8132    4.5770 C.3     1  UNL1        0.0000
     12 H           7.5709   12.6174    3.4918 H       1  UNL1        0.0000
     13 H           8.3599   13.5105    4.8157 H       1  UNL1        0.0000
     14 C           4.2943   11.1860    2.8893 C.3     1  UNL1        0.0000
     15 H           3.5555   10.6602    3.5234 H       1  UNL1        0.0000
     16 H           3.8863   11.2298    1.8680 H       1  UNL1        0.0000
     17 C           4.1261   12.5879    5.8151 C.3     1  UNL1        0.0000
     18 H           3.2119   12.0834    5.4810 H       1  UNL1        0.0000
     19 H           3.8742   13.6294    6.0818 H       1  UNL1        0.0000
     20 C           6.2048   13.4951    4.9289 C.3     1  UNL1        0.0000
     21 H           6.2497   13.7845    5.9824 H       1  UNL1        0.0000
     22 H           6.0514   14.4045    4.3292 H       1  UNL1        0.0000
     23 C           4.4920   12.6225    3.4135 C.3     1  UNL1        0.0000
     24 H           5.1789   13.1234    2.7275 H       1  UNL1        0.0000
     25 H           3.5481   13.1882    3.4432 H       1  UNL1        0.0000
     26 C           4.9497    9.7967    9.6642 C.3     1  UNL1        0.0000
     27 H           6.0329    9.8576    9.7086 H       1  UNL1        0.0000
     28 H           4.6327    9.0712   10.4071 H       1  UNL1        0.0000
     29 H           4.5574   10.7623    9.9705 H       1  UNL1        0.0000
     30 C           4.9437    7.5507    7.5800 C.3     1  UNL1        0.0000
     31 H           5.9954    7.5484    7.3083 H       1  UNL1        0.0000
     32 H           4.3775    7.0564    6.7971 H       1  UNL1        0.0000
     33 H           4.8364    6.9558    8.4805 H       1  UNL1        0.0000
     34 C           2.4017    9.2558    8.1060 C.3     1  UNL1        0.0000
     35 H           1.9425   10.2118    7.8665 H       1  UNL1        0.0000
     36 H           2.1286    9.0167    9.1289 H       1  UNL1        0.0000
     37 H           1.9476    8.5044    7.4675 H       1  UNL1        0.0000
     38 C          10.4929   10.4174    5.4450 C.3     1  UNL1        0.0000
     39 H          10.2291    9.5201    4.8921 H       1  UNL1        0.0000
     40 H          11.2665   10.1501    6.1585 H       1  UNL1        0.0000
     41 H          10.9274   11.1225    4.7419 H       1  UNL1        0.0000
     42 C           8.1959    9.8090    7.4723 C.3     1  UNL1        0.0000
     43 H           7.1056    9.8301    7.3807 H       1  UNL1        0.0000
     44 H           8.4618    9.9566    8.5145 H       1  UNL1        0.0000
     45 H           8.5436    8.8204    7.1874 H       1  UNL1        0.0000
     46 C           9.5928   12.6163    7.3858 C.3     1  UNL1        0.0000
     47 H           8.8008   13.0738    7.9710 H       1  UNL1        0.0000
     48 H          10.0234   13.3883    6.7561 H       1  UNL1        0.0000
     49 H          10.3667   12.2946    8.0739 H       1  UNL1        0.0000
     50 C           6.8814   12.2013    0.6863 C.3     1  UNL1        0.0000
     51 H           5.9288   12.6076    0.3565 H       1  UNL1        0.0000
     52 H           7.4861   12.0527   -0.2029 H       1  UNL1        0.0000
     53 H           7.3739   12.9628    1.2853 H       1  UNL1        0.0000
     54 C           8.3184    9.9937    2.3373 C.3     1  UNL1        0.0000
     55 H           8.2295    9.8609    3.4204 H       1  UNL1        0.0000
     56 H           9.0821   10.7425    2.1510 H       1  UNL1        0.0000
     57 H           8.6717    9.0648    1.9020 H       1  UNL1        0.0000
     58 C           6.0113    9.3893    0.1887 C.3     1  UNL1        0.0000
     59 H           5.2358    9.8907   -0.3832 H       1  UNL1        0.0000
     60 H           5.5887    8.4561    0.5484 H       1  UNL1        0.0000
     61 H           6.8116    9.1504   -0.5046 H       1  UNL1        0.0000
@<TRIPOS>BOND
     1    61    58    1
     2    59    58    1
     3    52    50    1
     4    58    60    1
     5    58     3    1
     6    51    50    1
     7    50    53    1
     8    50     3    1
     9     3    54    1
    10     3     6    1
    11    16    14    1
    12    57    54    1
    13    56    54    1
    14    54    55    1
    15    24    23    1
    16    14     6    1
    17    14    23    1
    18    14    15    1
    19    23    25    1
    20    23     7    1
    21    12    11    1
    22    22    20    1
    23    11    13    1
    24    11    20    1
    25    11     5    1
    26     7    20    1
    27     7    17    1
    28    41    38    1
    29    39    38    1
    30    20    21    1
    31     5     2    1
    32    38    40    1
    33    38     2    1
    34    18    17    1
    35    17    19    1
    36    17     8    1
    37     2    46    1
    38     2    42    1
    39     4     8    1
    40     4     1    1
    41    48    46    1
    42    32    30    1
    43     8     9    1
    44     8    10    1
    45    45    42    1
    46    31    30    1
    47    43    42    1
    48    46    47    1
    49    46    49    1
    50    37    34    1
    51    42    44    1
    52    30     1    1
    53    30    33    1
    54    35    34    1
    55     1    34    1
    56     1    26    1
    57    34    36    1
    58    26    27    1
    59    26    29    1
    60    26    28    1
