@<TRIPOS>MOLECULE
1,2,3,4
 61 60 0 0 0
SMALL
GASTEIGER

@<TRIPOS>ATOM
      1 N           0.5847    2.4379    2.1406 N.3     1  UNL1        0.0000
      2 N          -2.1190    1.6043    3.8857 N.3     1  UNL1        0.0000
      3 N           0.5369    1.8049    5.9173 N.3     1  UNL1        0.0000
      4 N           0.2501    0.0908    3.8062 N.3     1  UNL1        0.0000
      5 SI          1.2220    3.5353    0.9998 Si      1  UNL1        0.0000
      6 SI         -3.2847    1.8989    2.6783 Si      1  UNL1        0.0000
      7 SI         -0.2218    1.5663    7.4176 Si      1  UNL1        0.0000
      8 C           0.3582    1.1081    1.5931 C.3     1  UNL1        0.0000
      9 H           0.8260    0.9758    0.6085 H       1  UNL1        0.0000
     10 H          -0.7224    0.9308    1.4653 H       1  UNL1        0.0000
     11 C          -2.0900    0.2886    4.4917 C.3     1  UNL1        0.0000
     12 H          -3.0638   -0.2193    4.4340 H       1  UNL1        0.0000
     13 H          -1.8201    0.3748    5.5513 H       1  UNL1        0.0000
     14 C           1.6627    0.9780    5.5430 C.3     1  UNL1        0.0000
     15 H           2.3092    0.7219    6.3968 H       1  UNL1        0.0000
     16 H           2.2761    1.5018    4.7832 H       1  UNL1        0.0000
     17 C           0.9418    0.0419    2.5233 C.3     1  UNL1        0.0000
     18 H           0.8778   -0.9609    2.0655 H       1  UNL1        0.0000
     19 H           1.9992    0.2855    2.6782 H       1  UNL1        0.0000
     20 C          -1.0425   -0.5950    3.7843 C.3     1  UNL1        0.0000
     21 H          -0.9805   -1.5871    4.2559 H       1  UNL1        0.0000
     22 H          -1.3648   -0.7299    2.7493 H       1  UNL1        0.0000
     23 C           1.1131   -0.3137    4.9141 C.3     1  UNL1        0.0000
     24 H           1.9158   -0.9893    4.5810 H       1  UNL1        0.0000
     25 H           0.5213   -0.8259    5.6747 H       1  UNL1        0.0000
     26 C           0.4973    3.3368   -0.7788 C.3     1  UNL1        0.0000
     27 H          -0.5881    3.3242   -0.7783 H       1  UNL1        0.0000
     28 H           0.8324    2.4142   -1.2438 H       1  UNL1        0.0000
     29 H           0.8125    4.1511   -1.4242 H       1  UNL1        0.0000
     30 C           3.1131    3.3077    0.6650 C.3     1  UNL1        0.0000
     31 H           3.7314    3.5298    1.5287 H       1  UNL1        0.0000
     32 H           3.4445    3.9539   -0.1421 H       1  UNL1        0.0000
     33 H           3.3293    2.2846    0.3669 H       1  UNL1        0.0000
     34 C           0.8358    5.3353    1.4876 C.3     1  UNL1        0.0000
     35 H           0.6066    5.4069    2.5444 H       1  UNL1        0.0000
     36 H          -0.0097    5.7188    0.9258 H       1  UNL1        0.0000
     37 H           1.6812    5.9802    1.2780 H       1  UNL1        0.0000
     38 C          -5.0164    2.3567    3.4035 C.3     1  UNL1        0.0000
     39 H          -4.9375    2.9647    4.3001 H       1  UNL1        0.0000
     40 H          -5.5707    1.4621    3.6709 H       1  UNL1        0.0000
     41 H          -5.6187    2.9037    2.6850 H       1  UNL1        0.0000
     42 C          -3.7048    0.4280    1.4961 C.3     1  UNL1        0.0000
     43 H          -2.8892    0.1832    0.8208 H       1  UNL1        0.0000
     44 H          -4.5708    0.6585    0.8838 H       1  UNL1        0.0000
     45 H          -3.9434   -0.4688    2.0608 H       1  UNL1        0.0000
     46 C          -2.5975    3.3129    1.5903 C.3     1  UNL1        0.0000
     47 H          -3.2919    4.1419    1.5180 H       1  UNL1        0.0000
     48 H          -2.4080    2.9700    0.5787 H       1  UNL1        0.0000
     49 H          -1.6531    3.6692    2.0127 H       1  UNL1        0.0000
     50 C          -1.8613    2.5368    7.2447 C.3     1  UNL1        0.0000
     51 H          -1.9864    2.8318    6.1949 H       1  UNL1        0.0000
     52 H          -1.8689    3.4240    7.8691 H       1  UNL1        0.0000
     53 H          -2.7163    1.9363    7.5386 H       1  UNL1        0.0000
     54 C           0.8057    2.1409    8.9460 C.3     1  UNL1        0.0000
     55 H           1.2137    3.1391    8.8352 H       1  UNL1        0.0000
     56 H           1.6427    1.4696    9.1168 H       1  UNL1        0.0000
     57 H           0.1998    2.1307    9.8468 H       1  UNL1        0.0000
     58 C          -0.6546   -0.2324    8.0065 C.3     1  UNL1        0.0000
     59 H          -1.3383   -0.7628    7.3491 H       1  UNL1        0.0000
     60 H          -1.1155   -0.2073    8.9896 H       1  UNL1        0.0000
     61 H           0.2460   -0.8343    8.0985 H       1  UNL1        0.0000
@<TRIPOS>BOND
     1    29    26    1
     2    28    26    1
     3    26    27    1
     4    26     5    1
     5    32    30    1
     6    33    30    1
     7    48    46    1
     8     9     8    1
     9    30     5    1
    10    30    31    1
    11    43    42    1
    12    44    42    1
    13    36    34    1
    14     5    34    1
    15     5     1    1
    16    37    34    1
    17    10     8    1
    18    34    35    1
    19    42    45    1
    20    42     6    1
    21    47    46    1
    22    46    49    1
    23    46     6    1
    24     8     1    1
    25     8    17    1
    26    18    17    1
    27    17    19    1
    28    17     4    1
    29     6    38    1
    30     6     2    1
    31    41    38    1
    32    22    20    1
    33    38    40    1
    34    38    39    1
    35    20     4    1
    36    20    21    1
    37    20    11    1
    38     4    23    1
    39     2    11    1
    40    12    11    1
    41    11    13    1
    42    24    23    1
    43    16    14    1
    44    23    14    1
    45    23    25    1
    46    14     3    1
    47    14    15    1
    48     3     7    1
    49    51    50    1
    50    50     7    1
    51    50    53    1
    52    50    52    1
    53    59    58    1
    54     7    58    1
    55     7    54    1
    56    58    61    1
    57    58    60    1
    58    55    54    1
    59    54    56    1
    60    54    57    1
