@<TRIPOS>MOLECULE
1,2,33,34
 63 64 0 0 0
SMALL
GASTEIGER

@<TRIPOS>ATOM
      1 N          16.8471    4.7119    0.7233 N.3     1  UNL1        0.0000
      2 N          16.4332    5.7932    2.6046 N.3     1  UNL1        0.0000
      3 SI         17.2178    6.7475    3.8186 Si      1  UNL1        0.0000
      4 C          16.8477    3.5703   -0.1824 C.3     1  UNL1        0.0000
      5 C          16.5604    4.1408   -1.5805 C.3     1  UNL1        0.0000
      6 H          17.2678    4.9406   -1.8010 H       1  UNL1        0.0000
      7 H          15.5552    4.5545   -1.6110 H       1  UNL1        0.0000
      8 H          16.6434    3.3615   -2.3350 H       1  UNL1        0.0000
      9 C          18.1837    2.8108   -0.2225 C.3     1  UNL1        0.0000
     10 H          18.9951    3.4909   -0.4699 H       1  UNL1        0.0000
     11 H          18.1387    2.0348   -0.9838 H       1  UNL1        0.0000
     12 H          18.3924    2.3378    0.7333 H       1  UNL1        0.0000
     13 C          15.7221    2.5933    0.1947 C.3     1  UNL1        0.0000
     14 H          15.9580    2.0642    1.1145 H       1  UNL1        0.0000
     15 H          15.5820    1.8622   -0.5982 H       1  UNL1        0.0000
     16 H          14.7918    3.1398    0.3364 H       1  UNL1        0.0000
     17 C          16.8083    4.6621    2.0348 C.3     1  UNL1        0.0000
     18 C          17.1752    3.5145    2.9095 C.ar    1  UNL1        0.0000
     19 C          18.5150    3.1749    3.0692 C.ar    1  UNL1        0.0000
     20 H          19.2684    3.7184    2.5142 H       1  UNL1        0.0000
     21 C          18.8790    2.1690    3.9469 C.ar    1  UNL1        0.0000
     22 H          19.9212    1.9104    4.0667 H       1  UNL1        0.0000
     23 C          17.9107    1.4970    4.6744 C.ar    1  UNL1        0.0000
     24 H          18.1958    0.7096    5.3566 H       1  UNL1        0.0000
     25 C          16.5774    1.8448    4.5338 C.ar    1  UNL1        0.0000
     26 H          15.8216    1.3300    5.1092 H       1  UNL1        0.0000
     27 C          16.2105    2.8550    3.6624 C.ar    1  UNL1        0.0000
     28 H          15.1734    3.1386    3.5567 H       1  UNL1        0.0000
     29 C          18.5633    5.9629    4.9252 C.3     1  UNL1        0.0000
     30 H          18.8531    6.6387    5.7227 H       1  UNL1        0.0000
     31 H          19.4546    5.7107    4.3594 H       1  UNL1        0.0000
     32 H          18.1890    5.0532    5.3831 H       1  UNL1        0.0000
     33 N          17.5884    8.7831    0.7233 N.3     1  UNL1        0.0000
     34 N          18.0024    7.7018    2.6046 N.3     1  UNL1        0.0000
     35 C          17.5878    9.9247   -0.1823 C.3     1  UNL1        0.0000
     36 C          17.8751    9.3543   -1.5805 C.3     1  UNL1        0.0000
     37 H          17.1677    8.5544   -1.8010 H       1  UNL1        0.0000
     38 H          18.8803    8.9406   -1.6110 H       1  UNL1        0.0000
     39 H          17.7921   10.1335   -2.3350 H       1  UNL1        0.0000
     40 C          16.2518   10.6842   -0.2225 C.3     1  UNL1        0.0000
     41 H          15.4404   10.0041   -0.4699 H       1  UNL1        0.0000
     42 H          16.2968   11.4603   -0.9837 H       1  UNL1        0.0000
     43 H          16.0430   11.1571    0.7333 H       1  UNL1        0.0000
     44 C          18.7133   10.9017    0.1948 C.3     1  UNL1        0.0000
     45 H          18.4775   11.4309    1.1146 H       1  UNL1        0.0000
     46 H          18.8536   11.6328   -0.5982 H       1  UNL1        0.0000
     47 H          19.6437   10.3552    0.3364 H       1  UNL1        0.0000
     48 C          17.6272    8.8329    2.0348 C.3     1  UNL1        0.0000
     49 C          17.2603    9.9805    2.9095 C.ar    1  UNL1        0.0000
     50 C          15.9205   10.3201    3.0692 C.ar    1  UNL1        0.0000
     51 H          15.1671    9.7765    2.5142 H       1  UNL1        0.0000
     52 C          15.5564   11.3259    3.9469 C.ar    1  UNL1        0.0000
     53 H          14.5143   11.5845    4.0666 H       1  UNL1        0.0000
     54 C          16.5247   11.9980    4.6744 C.ar    1  UNL1        0.0000
     55 H          16.2396   12.7854    5.3565 H       1  UNL1        0.0000
     56 C          17.8580   11.6503    4.5338 C.ar    1  UNL1        0.0000
     57 H          18.6139   12.1651    5.1091 H       1  UNL1        0.0000
     58 C          18.2250   10.6400    3.6624 C.ar    1  UNL1        0.0000
     59 H          19.2621   10.3565    3.5567 H       1  UNL1        0.0000
     60 C          15.8724    7.5321    4.9253 C.3     1  UNL1        0.0000
     61 H          15.5825    6.8563    5.7227 H       1  UNL1        0.0000
     62 H          14.9810    7.7843    4.3595 H       1  UNL1        0.0000
     63 H          16.2466    8.4418    5.3831 H       1  UNL1        0.0000
@<TRIPOS>BOND
     1     8     5    1
     2    39    36    1
     3    37    36    1
     4     6     5    1
     5     7     5    1
     6    38    36    1
     7    36    35    1
     8     5     4    1
     9    11     9    1
    10    42    40    1
    11    15    13    1
    12    46    44    1
    13    41    40    1
    14    10     9    1
    15     9     4    1
    16     9    12    1
    17    40    35    1
    18    40    43    1
    19     4    13    1
    20     4     1    1
    21    35    44    1
    22    35    33    1
    23    13    16    1
    24    13    14    1
    25    44    47    1
    26    44    45    1
    27     1    17    1
    28    33    48    1
    29    48    34    1
    30    48    49    1
    31    17     2    1
    32    17    18    1
    33    20    19    1
    34    51    50    1
    35    34     3    1
    36     2     3    1
    37    18    19   ar
    38    18    27   ar
    39    49    50   ar
    40    49    58   ar
    41    50    52   ar
    42    19    21   ar
    43    28    27    1
    44    59    58    1
    45    58    56   ar
    46    27    25   ar
    47     3    29    1
    48     3    60    1
    49    52    53    1
    50    52    54   ar
    51    21    22    1
    52    21    23   ar
    53    31    29    1
    54    62    60    1
    55    56    54   ar
    56    56    57    1
    57    25    23   ar
    58    25    26    1
    59    54    55    1
    60    23    24    1
    61    29    32    1
    62    29    30    1
    63    60    63    1
    64    60    61    1
