@<TRIPOS>MOLECULE
2,3,33,34
 63 64 0 0 0
SMALL
GASTEIGER

@<TRIPOS>ATOM
      1 SI         -0.0000   13.3745    4.5842 Si      1  UNL1        0.0000
      2 N          -0.5143   15.2692    1.4005 N.3     1  UNL1        0.0000
      3 N          -0.7806   14.3062    3.3399 N.3     1  UNL1        0.0000
      4 C          -0.4935   16.2624    0.3386 C.3     1  UNL1        0.0000
      5 C          -0.5202   15.4474   -0.9658 C.3     1  UNL1        0.0000
      6 H          -1.3961   14.7952   -0.9751 H       1  UNL1        0.0000
      7 H           0.3834   14.8347   -1.0317 H       1  UNL1        0.0000
      8 H          -0.5631   16.1094   -1.8275 H       1  UNL1        0.0000
      9 C          -1.7617   17.1218    0.4431 C.3     1  UNL1        0.0000
     10 H          -1.7386   17.7264    1.3474 H       1  UNL1        0.0000
     11 H          -2.6397   16.4786    0.4732 H       1  UNL1        0.0000
     12 H          -1.8365   17.7825   -0.4168 H       1  UNL1        0.0000
     13 C           0.7585   17.1501    0.3585 C.3     1  UNL1        0.0000
     14 H           0.7450   17.8282    1.2084 H       1  UNL1        0.0000
     15 H           0.7959   17.7417   -0.5530 H       1  UNL1        0.0000
     16 H           1.6499   16.5269    0.4086 H       1  UNL1        0.0000
     17 C          -0.5085   15.4376    2.7003 C.3     1  UNL1        0.0000
     18 C          -0.1879   16.6674    3.4655 C.ar    1  UNL1        0.0000
     19 C          -1.1849   17.4027    4.0937 C.ar    1  UNL1        0.0000
     20 H          -2.2171   17.1046    3.9808 H       1  UNL1        0.0000
     21 C          -0.8492   18.5101    4.8538 C.ar    1  UNL1        0.0000
     22 H          -1.6263   19.0865    5.3338 H       1  UNL1        0.0000
     23 C           0.4780   18.8760    5.0022 C.ar    1  UNL1        0.0000
     24 H           0.7365   19.7393    5.5973 H       1  UNL1        0.0000
     25 C           1.4749   18.1319    4.3915 C.ar    1  UNL1        0.0000
     26 H           2.5107   18.4122    4.5129 H       1  UNL1        0.0000
     27 C           1.1469   17.0285    3.6243 C.ar    1  UNL1        0.0000
     28 H           1.9161   16.4381    3.1437 H       1  UNL1        0.0000
     29 C           1.3475   14.2190    5.6346 C.3     1  UNL1        0.0000
     30 H           0.9728   15.1451    6.0581 H       1  UNL1        0.0000
     31 H           2.2283   14.4503    5.0427 H       1  UNL1        0.0000
     32 H           1.6527   13.5792    6.4551 H       1  UNL1        0.0000
     33 N           0.5144   11.4799    1.4006 N.3     1  UNL1        0.0000
     34 N           0.7806   12.4428    3.3399 N.3     1  UNL1        0.0000
     35 C           0.4935   10.4867    0.3387 C.3     1  UNL1        0.0000
     36 C           0.5202   11.3016   -0.9658 C.3     1  UNL1        0.0000
     37 H           1.3961   11.9538   -0.9751 H       1  UNL1        0.0000
     38 H          -0.3834   11.9143   -1.0317 H       1  UNL1        0.0000
     39 H           0.5631   10.6395   -1.8275 H       1  UNL1        0.0000
     40 C           1.7617    9.6272    0.4431 C.3     1  UNL1        0.0000
     41 H           1.7385    9.0225    1.3474 H       1  UNL1        0.0000
     42 H           2.6397   10.2703    0.4733 H       1  UNL1        0.0000
     43 H           1.8365    8.9665   -0.4168 H       1  UNL1        0.0000
     44 C          -0.7586    9.5989    0.3586 C.3     1  UNL1        0.0000
     45 H          -0.7451    8.9209    1.2085 H       1  UNL1        0.0000
     46 H          -0.7960    9.0073   -0.5529 H       1  UNL1        0.0000
     47 H          -1.6499   10.2222    0.4086 H       1  UNL1        0.0000
     48 C           0.5086   11.3114    2.7003 C.3     1  UNL1        0.0000
     49 C           0.1880   10.0816    3.4655 C.ar    1  UNL1        0.0000
     50 C           1.1849    9.3464    4.0937 C.ar    1  UNL1        0.0000
     51 H           2.2172    9.6444    3.9808 H       1  UNL1        0.0000
     52 C           0.8493    8.2388    4.8538 C.ar    1  UNL1        0.0000
     53 H           1.6264    7.6625    5.3337 H       1  UNL1        0.0000
     54 C          -0.4780    7.8730    5.0022 C.ar    1  UNL1        0.0000
     55 H          -0.7364    7.0097    5.5973 H       1  UNL1        0.0000
     56 C          -1.4748    8.6171    4.3916 C.ar    1  UNL1        0.0000
     57 H          -2.5106    8.3368    4.5130 H       1  UNL1        0.0000
     58 C          -1.1468    9.7205    3.6243 C.ar    1  UNL1        0.0000
     59 H          -1.9160   10.3110    3.1438 H       1  UNL1        0.0000
     60 C          -1.3476   12.5300    5.6345 C.3     1  UNL1        0.0000
     61 H          -0.9731   11.6038    6.0579 H       1  UNL1        0.0000
     62 H          -2.2285   12.2988    5.0426 H       1  UNL1        0.0000
     63 H          -1.6528   13.1697    6.4551 H       1  UNL1        0.0000
@<TRIPOS>BOND
     1     8     5    1
     2    39    36    1
     3     7     5    1
     4    38    36    1
     5     6     5    1
     6    37    36    1
     7     5     4    1
     8    36    35    1
     9    15    13    1
    10    46    44    1
    11    12     9    1
    12    43    40    1
    13     4    13    1
    14     4     9    1
    15     4     2    1
    16    35    44    1
    17    35    40    1
    18    35    33    1
    19    13    16    1
    20    13    14    1
    21    44    47    1
    22    44    45    1
    23     9    11    1
    24     9    10    1
    25    40    42    1
    26    40    41    1
    27     2    17    1
    28    33    48    1
    29    17     3    1
    30    17    18    1
    31    48    34    1
    32    48    49    1
    33    28    27    1
    34    59    58    1
    35     3     1    1
    36    34     1    1
    37    18    27   ar
    38    18    19   ar
    39    49    58   ar
    40    49    50   ar
    41    27    25   ar
    42    58    56   ar
    43    20    19    1
    44    51    50    1
    45    19    21   ar
    46    50    52   ar
    47    25    26    1
    48    25    23   ar
    49    56    57    1
    50    56    54   ar
    51     1    60    1
    52     1    29    1
    53    52    54   ar
    54    52    53    1
    55    21    23   ar
    56    21    22    1
    57    54    55    1
    58    23    24    1
    59    62    60    1
    60    31    29    1
    61    60    61    1
    62    60    63    1
    63    29    30    1
    64    29    32    1
