@<TRIPOS>MOLECULE
1,2,3,4
 88 96 0 0 0
SMALL
GASTEIGER

@<TRIPOS>ATOM
      1 N           5.0655   15.0921    1.2453 N.ar    1  UNL1       -0.2465
      2 N           7.5049   15.0611    2.7253 N.2     1  UNL1       -0.2465
      3 N           6.0278   14.6616    5.1443 N.ar    1  UNL1       -0.2465
      4 N           3.5830   14.7426    3.6712 N.2     1  UNL1       -0.2465
      5 C           3.8185   14.9828    0.7049 C.ar    1  UNL1        0.0743
      6 C           3.9068   15.0170   -0.7272 C.ar    1  UNL1       -0.0336
      7 H           3.0770   14.9124   -1.3988 H       1  UNL1        0.0640
      8 C           5.2140   15.1851   -1.0353 C.ar    1  UNL1       -0.0336
      9 H           5.6612   15.2447   -2.0084 H       1  UNL1        0.0640
     10 C           5.9314   15.2437    0.2060 C.ar    1  UNL1        0.0743
     11 C           7.3137   15.3984    0.3019 C.2     1  UNL1        0.0328
     12 C           8.0277   15.3194    1.4954 C.2     1  UNL1        0.0743
     13 C           9.4529   15.4653    1.5948 C.2     1  UNL1       -0.0336
     14 H          10.1064   15.7060    0.7793 H       1  UNL1        0.0640
     15 C           9.7793   15.2553    2.8905 C.2     1  UNL1       -0.0336
     16 H          10.7513   15.2913    3.3425 H       1  UNL1        0.0640
     17 C           8.5536   14.9898    3.5902 C.2     1  UNL1        0.0743
     18 C           8.4782   14.7115    4.9546 C.2     1  UNL1        0.0328
     19 C           7.2848   14.5391    5.6559 C.ar    1  UNL1        0.0743
     20 C           7.2099   14.2087    7.0506 C.ar    1  UNL1       -0.0336
     21 H           8.0535   14.0183    7.6850 H       1  UNL1        0.0640
     22 C           5.8966   14.1721    7.3756 C.ar    1  UNL1       -0.0336
     23 H           5.4565   13.9462    8.3273 H       1  UNL1        0.0640
     24 C           5.1630   14.4703    6.1789 C.ar    1  UNL1        0.0743
     25 C           3.7704   14.5111    6.1084 C.2     1  UNL1        0.0328
     26 C           3.0509   14.6577    4.9235 C.2     1  UNL1        0.0743
     27 C           1.6188   14.6937    4.8454 C.2     1  UNL1       -0.0336
     28 H           0.9553   14.6726    5.6876 H       1  UNL1        0.0640
     29 C           1.2985   14.7732    3.5330 C.2     1  UNL1       -0.0336
     30 H           0.3220   14.8311    3.0933 H       1  UNL1        0.0640
     31 C           2.5337   14.7937    2.8028 C.2     1  UNL1        0.0743
     32 C           2.6213   14.8671    1.4125 C.2     1  UNL1        0.0328
     33 C           8.0650   15.6343   -0.9483 C.ar    1  UNL1       -0.0138
     34 C           9.0022   14.7144   -1.4050 C.ar    1  UNL1       -0.0537
     35 H           9.1777   13.8111   -0.8384 H       1  UNL1        0.0624
     36 C           9.6943   14.9400   -2.5807 C.ar    1  UNL1       -0.0583
     37 H          10.4150   14.2106   -2.9233 H       1  UNL1        0.0620
     38 C           9.4747   16.0893   -3.3280 C.ar    1  UNL1       -0.0504
     39 C           8.5380   17.0084   -2.8678 C.ar    1  UNL1       -0.0583
     40 H           8.3557   17.9094   -3.4365 H       1  UNL1        0.0620
     41 C           7.8390   16.7851   -1.6978 C.ar    1  UNL1       -0.0537
     42 H           7.1167   17.5080   -1.3476 H       1  UNL1        0.0624
     43 C          10.2355   16.3500   -4.5926 C.3     1  UNL1       -0.0397
     44 H          10.7363   15.4494   -4.9393 H       1  UNL1        0.0278
     45 H          10.9908   17.1181   -4.4235 H       1  UNL1        0.0278
     46 H           9.5692   16.7064   -5.3762 H       1  UNL1        0.0278
     47 C           9.7443   14.6093    5.7099 C.ar    1  UNL1       -0.0138
     48 C          10.6741   13.6187    5.4075 C.ar    1  UNL1       -0.0537
     49 H          10.4587   12.9149    4.6162 H       1  UNL1        0.0624
     50 C          11.8554   13.5250    6.1163 C.ar    1  UNL1       -0.0583
     51 H          12.5659   12.7472    5.8736 H       1  UNL1        0.0620
     52 C          12.1471   14.4190    7.1411 C.ar    1  UNL1       -0.0504
     53 C          11.2196   15.4083    7.4379 C.ar    1  UNL1       -0.0583
     54 H          11.4282   16.1154    8.2285 H       1  UNL1        0.0620
     55 C          10.0321   15.5028    6.7357 C.ar    1  UNL1       -0.0537
     56 H           9.3223   16.2818    6.9739 H       1  UNL1        0.0624
     57 C          13.4384   14.3094    7.8936 C.3     1  UNL1       -0.0397
     58 H          13.4774   15.0282    8.7082 H       1  UNL1        0.0278
     59 H          14.2807   14.4956    7.2275 H       1  UNL1        0.0278
     60 H          13.5565   13.3079    8.3052 H       1  UNL1        0.0278
     61 C           3.0144   14.3557    7.3686 C.ar    1  UNL1       -0.0138
     62 C           3.1356   15.3018    8.3820 C.ar    1  UNL1       -0.0537
     63 H           3.7795   16.1558    8.2302 H       1  UNL1        0.0624
     64 C           2.4323   15.1594    9.5619 C.ar    1  UNL1       -0.0583
     65 H           2.5324   15.9056   10.3377 H       1  UNL1        0.0620
     66 C           1.5958   14.0681    9.7691 C.ar    1  UNL1       -0.0504
     67 C           1.4811   13.1232    8.7585 C.ar    1  UNL1       -0.0583
     68 H           0.8398   12.2645    8.9010 H       1  UNL1        0.0620
     69 C           2.1777   13.2640    7.5724 C.ar    1  UNL1       -0.0537
     70 H           2.0821   12.5145    6.7993 H       1  UNL1        0.0624
     71 C           0.8273   13.9328   11.0485 C.3     1  UNL1       -0.0397
     72 H           0.4333   12.9258   11.1624 H       1  UNL1        0.0278
     73 H          -0.0105   14.6306   11.0571 H       1  UNL1        0.0278
     74 H           1.4599   14.1626   11.9039 H       1  UNL1        0.0278
     75 C           1.3610   14.8513    0.6407 C.ar    1  UNL1       -0.0138
     76 C           0.5160   13.7479    0.6753 C.ar    1  UNL1       -0.0537
     77 H           0.7903   12.8873    1.2690 H       1  UNL1        0.0624
     78 C          -0.6622   13.7395   -0.0488 C.ar    1  UNL1       -0.0583
     79 H          -1.3034   12.8697   -0.0129 H       1  UNL1        0.0620
     80 C          -1.0318   14.8324   -0.8205 C.ar    1  UNL1       -0.0504
     81 C          -0.1868   15.9367   -0.8504 C.ar    1  UNL1       -0.0583
     82 H          -0.4613   16.7978   -1.4434 H       1  UNL1        0.0620
     83 C           0.9935   15.9478   -0.1342 C.ar    1  UNL1       -0.0537
     84 H           1.6376   16.8148   -0.1617 H       1  UNL1        0.0624
     85 C          -2.3116   14.8392   -1.6000 C.3     1  UNL1       -0.0397
     86 H          -2.8056   13.8722   -1.5482 H       1  UNL1        0.0278
     87 H          -2.1209   15.0792   -2.6451 H       1  UNL1        0.0278
     88 H          -2.9896   15.5953   -1.2046 H       1  UNL1        0.0278
@<TRIPOS>BOND
     1    46    43    1
     2    44    43    1
     3    43    45    1
     4    43    38    1
     5    40    39    1
     6    38    39   ar
     7    38    36   ar
     8    37    36    1
     9    39    41   ar
    10    87    85    1
    11    36    34   ar
    12     9     8    1
    13    41    42    1
    14    41    33   ar
    15    85    86    1
    16    85    88    1
    17    85    80    1
    18    82    81    1
    19    34    33   ar
    20    34    35    1
    21     7     6    1
    22     8     6   ar
    23     8    10   ar
    24    33    11    1
    25    81    80   ar
    26    81    83   ar
    27    80    78   ar
    28     6     5   ar
    29    84    83    1
    30    83    75   ar
    31    78    79    1
    32    78    76   ar
    33    10    11    2
    34    10     1   ar
    35    11    12    1
    36    75    76   ar
    37    75    32    1
    38    76    77    1
    39     5     1   ar
    40     5    32    2
    41    14    13    1
    42    32    31    1
    43    12    13    1
    44    12     2    2
    45    13    15    2
    46     2    17    1
    47    31    29    1
    48    31     4    2
    49    15    16    1
    50    15    17    1
    51    30    29    1
    52    29    27    2
    53    17    18    2
    54     4    26    1
    55    49    48    1
    56    27    26    1
    57    27    28    1
    58    26    25    2
    59    18    19    1
    60    18    47    1
    61     3    19   ar
    62     3    24   ar
    63    48    47   ar
    64    48    50   ar
    65    19    20   ar
    66    47    55   ar
    67    51    50    1
    68    25    24    1
    69    25    61    1
    70    50    52   ar
    71    24    22   ar
    72    55    56    1
    73    55    53   ar
    74    70    69    1
    75    20    22   ar
    76    20    21    1
    77    52    53   ar
    78    52    57    1
    79    59    57    1
    80    61    69   ar
    81    61    62   ar
    82    22    23    1
    83    53    54    1
    84    69    67   ar
    85    57    60    1
    86    57    58    1
    87    63    62    1
    88    62    64   ar
    89    67    68    1
    90    67    66   ar
    91    64    66   ar
    92    64    65    1
    93    66    71    1
    94    71    73    1
    95    71    72    1
    96    71    74    1
