@<TRIPOS>MOLECULE
1,2,3,4
 52 54 0 0 0
SMALL
GASTEIGER

@<TRIPOS>ATOM
      1 N         -26.0309  -17.4250   -2.7676 N.pl3   1  UNL1       -0.2526
      2 N         -27.1731  -15.8745   -1.0702 N.3     1  UNL1       -0.2210
      3 N         -25.0377  -13.9612   -1.2084 N.pl3   1  UNL1       -0.2524
      4 N         -23.4944  -15.3785   -2.6953 N.pl3   1  UNL1       -0.2491
      5 C         -27.3579  -17.4598   -2.8041 C.2     1  UNL1        0.0531
      6 C         -28.0628  -18.2948   -3.7026 C.2     1  UNL1       -0.0410
      7 C         -29.4020  -18.5079   -3.9462 C.2     1  UNL1       -0.0602
      8 C         -30.5148  -17.9500   -3.3411 C.2     1  UNL1       -0.0619
      9 C         -30.4909  -17.0400   -2.2999 C.2     1  UNL1       -0.0635
     10 C         -29.4162  -16.4680   -1.6529 C.2     1  UNL1       -0.0546
     11 C         -28.0149  -16.5733   -1.8205 C.3     1  UNL1        0.1222
     12 C         -27.7099  -15.0034   -0.0411 C.3     1  UNL1        0.0169
     13 C         -26.6170  -14.1995    0.6570 C.3     1  UNL1       -0.0213
     14 C         -25.9288  -13.2474   -0.3145 C.3     1  UNL1        0.0323
     15 C         -24.3208  -13.2632   -2.0797 C.2     1  UNL1        0.0554
     16 C         -24.5352  -11.8827   -2.2879 C.3     1  UNL1        0.0304
     17 C         -23.8683  -10.9324   -3.0342 C.2     1  UNL1       -0.0744
     18 C         -22.6882  -11.0436   -3.7456 C.2     1  UNL1       -0.0650
     19 C         -21.9587  -12.2090   -3.9217 C.2     1  UNL1       -0.0602
     20 C         -22.2635  -13.5001   -3.5549 C.2     1  UNL1       -0.0376
     21 C         -23.3337  -14.0693   -2.8258 C.2     1  UNL1        0.0668
     22 C         -22.6621  -16.2792   -3.4788 C.3     1  UNL1        0.0315
     23 C         -23.0578  -16.2751   -4.9645 C.3     1  UNL1       -0.0355
     24 C         -24.5600  -16.4336   -5.2044 C.3     1  UNL1       -0.0501
     25 C         -25.0927  -17.8586   -5.0587 C.3     1  UNL1       -0.0355
     26 C         -25.2578  -18.3338   -3.6048 C.3     1  UNL1        0.0311
     27 H         -27.4319  -18.8946   -4.3393 H       1  UNL1        0.0634
     28 H         -29.6120  -19.2244   -4.7330 H       1  UNL1        0.0618
     29 H         -31.4846  -18.2642   -3.7024 H       1  UNL1        0.0618
     30 H         -31.4620  -16.7305   -1.9292 H       1  UNL1        0.0615
     31 H         -29.7207  -15.8071   -0.8557 H       1  UNL1        0.0595
     32 H         -28.2444  -15.5985    0.7141 H       1  UNL1        0.0442
     33 H         -28.4242  -14.2885   -0.4819 H       1  UNL1        0.0442
     34 H         -25.8834  -14.8790    1.0892 H       1  UNL1        0.0294
     35 H         -27.0797  -13.6151    1.4568 H       1  UNL1        0.0294
     36 H         -26.7113  -12.7148   -0.8802 H       1  UNL1        0.0482
     37 H         -25.3573  -12.4969    0.2536 H       1  UNL1        0.0482
     38 H         -25.4097  -11.4883   -1.7906 H       1  UNL1        0.0414
     39 H         -24.3170   -9.9453   -3.0218 H       1  UNL1        0.0579
     40 H         -22.2959  -10.1426   -4.1971 H       1  UNL1        0.0615
     41 H         -21.0264  -12.0963   -4.4642 H       1  UNL1        0.0618
     42 H         -21.5126  -14.2129   -3.8628 H       1  UNL1        0.0637
     43 H         -22.7687  -17.2788   -3.0591 H       1  UNL1        0.0482
     44 H         -21.5975  -16.0224   -3.3892 H       1  UNL1        0.0482
     45 H         -22.5166  -17.0742   -5.4755 H       1  UNL1        0.0281
     46 H         -22.7496  -15.3257   -5.4098 H       1  UNL1        0.0281
     47 H         -24.7710  -16.1018   -6.2251 H       1  UNL1        0.0266
     48 H         -25.1082  -15.7738   -4.5231 H       1  UNL1        0.0266
     49 H         -24.4224  -18.5538   -5.5694 H       1  UNL1        0.0281
     50 H         -26.0602  -17.8985   -5.5652 H       1  UNL1        0.0281
     51 H         -25.7110  -19.3346   -3.6116 H       1  UNL1        0.0482
     52 H         -24.2777  -18.4447   -3.1415 H       1  UNL1        0.0482
@<TRIPOS>BOND
     1    47    24    1
     2    49    25    1
     3    50    25    1
     4    45    23    1
     5    46    23    1
     6    24    25    1
     7    24    23    1
     8    24    48    1
     9    25    26    1
    10    23    22    1
    11    28     7    1
    12    41    19    1
    13    27     6    1
    14    40    18    1
    15     7     6    1
    16     7     8    2
    17    19    18    1
    18    19    20    2
    19    42    20    1
    20    18    17    2
    21     6     5    2
    22    29     8    1
    23    51    26    1
    24    26    52    1
    25    26     1    1
    26    20    21    1
    27    22    44    1
    28    22    43    1
    29    22     4    1
    30     8     9    1
    31    17    39    1
    32    17    16    1
    33    21     4    1
    34    21    15    2
    35     5     1    1
    36     5    11    1
    37     9    30    1
    38     9    10    2
    39    16    15    1
    40    16    38    1
    41    15     3    1
    42    11    10    1
    43    11     2    1
    44    10    31    1
    45     3    14    1
    46     2    12    1
    47    36    14    1
    48    33    12    1
    49    14    37    1
    50    14    13    1
    51    12    13    1
    52    12    32    1
    53    13    34    1
    54    13    35    1
