@<TRIPOS>MOLECULE
2,3,22,42
 61 60 0 0 0
SMALL
GASTEIGER

@<TRIPOS>ATOM
      1 SI         10.9792    4.7364    1.8858 Si      1  UNL1        0.0000
      2 N          12.7052    4.8140    1.8099 N.3     1  UNL1        0.0000
      3 N          14.8432    6.2332    2.3771 N.3     1  UNL1        0.0000
      4 C          14.8589    5.6320    1.0411 C.3     1  UNL1        0.0000
      5 H          15.4552    4.7176    1.1005 H       1  UNL1        0.0000
      6 H          15.3145    6.3096    0.3029 H       1  UNL1        0.0000
      7 C          13.4251    5.2509    0.6353 C.3     1  UNL1        0.0000
      8 H          12.9269    6.1022    0.1484 H       1  UNL1        0.0000
      9 H          13.4755    4.4493   -0.1175 H       1  UNL1        0.0000
     10 C          10.3457    2.9450    2.1128 C.3     1  UNL1        0.0000
     11 H           9.2607    2.9297    2.1129 H       1  UNL1        0.0000
     12 H          10.6813    2.5328    3.0587 H       1  UNL1        0.0000
     13 H          10.6854    2.2875    1.3180 H       1  UNL1        0.0000
     14 C          10.2203    5.3989    0.2562 C.3     1  UNL1        0.0000
     15 H           9.1404    5.3161    0.2855 H       1  UNL1        0.0000
     16 H          10.5692    4.8328   -0.6003 H       1  UNL1        0.0000
     17 H          10.4619    6.4431    0.0847 H       1  UNL1        0.0000
     18 C          10.3942    5.8852    3.3129 C.3     1  UNL1        0.0000
     19 H           9.7980    5.3277    4.0276 H       1  UNL1        0.0000
     20 H           9.7906    6.7163    2.9586 H       1  UNL1        0.0000
     21 H          11.2568    6.2915    3.8527 H       1  UNL1        0.0000
     22 N          15.4093    4.0942    3.7946 N.3     1  UNL1        0.0000
     23 SI         15.3343    2.3680    3.8722 Si      1  UNL1        0.0000
     24 C          15.1067    1.7337    5.6632 C.3     1  UNL1        0.0000
     25 H          15.1061    0.6488    5.6779 H       1  UNL1        0.0000
     26 H          14.1608    2.0696    6.0754 H       1  UNL1        0.0000
     27 H          15.9015    2.0728    6.3210 H       1  UNL1        0.0000
     28 C          16.9652    1.6107    3.2109 C.3     1  UNL1        0.0000
     29 H          16.9367    0.5308    3.2933 H       1  UNL1        0.0000
     30 H          17.8209    1.9601    3.7780 H       1  UNL1        0.0000
     31 H          17.1376    1.8528    2.1670 H       1  UNL1        0.0000
     32 C          13.9082    1.7824    2.7228 C.3     1  UNL1        0.0000
     33 H          13.1931    1.1862    3.2798 H       1  UNL1        0.0000
     34 H          14.2634    1.1786    1.8924 H       1  UNL1        0.0000
     35 H          13.3685    2.6446    2.3155 H       1  UNL1        0.0000
     36 C          16.5844    4.8144    3.3596 C.3     1  UNL1        0.0000
     37 C          16.1792    6.2484    2.9783 C.3     1  UNL1        0.0000
     38 C          14.2427    7.5695    2.3612 C.3     1  UNL1        0.0000
     39 H          13.3283    7.5104    1.7647 H       1  UNL1        0.0000
     40 H          14.9207    8.3073    1.9054 H       1  UNL1        0.0000
     41 C          13.8617    7.9756    3.7949 C.3     1  UNL1        0.0000
     42 N          13.4248    6.8014    4.5152 N.3     1  UNL1        0.0000
     43 SI         13.3468    6.7262    6.2413 Si      1  UNL1        0.0000
     44 C          11.5555    6.4987    6.8747 C.3     1  UNL1        0.0000
     45 H          11.5404    6.4965    7.9597 H       1  UNL1        0.0000
     46 H          11.1427    5.5537    6.5373 H       1  UNL1        0.0000
     47 H          10.8983    7.2945    6.5367 H       1  UNL1        0.0000
     48 C          14.0078    8.3567    6.9993 C.3     1  UNL1        0.0000
     49 H          13.9252    8.3279    8.0792 H       1  UNL1        0.0000
     50 H          13.4406    9.2124    6.6501 H       1  UNL1        0.0000
     51 H          15.0517    8.5295    6.7574 H       1  UNL1        0.0000
     52 C          14.4955    5.2990    6.8261 C.3     1  UNL1        0.0000
     53 H          13.9376    4.5833    7.4204 H       1  UNL1        0.0000
     54 H          15.3253    5.6530    7.4316 H       1  UNL1        0.0000
     55 H          14.9036    4.7605    5.9636 H       1  UNL1        0.0000
     56 H          14.7130    8.4628    4.2928 H       1  UNL1        0.0000
     57 H          13.0602    8.7285    3.7443 H       1  UNL1        0.0000
     58 H          16.1201    6.8450    3.8925 H       1  UNL1        0.0000
     59 H          16.9176    6.7035    2.3005 H       1  UNL1        0.0000
     60 H          17.0726    4.3165    2.5089 H       1  UNL1        0.0000
     61 H          17.3360    4.8646    4.1623 H       1  UNL1        0.0000
@<TRIPOS>BOND
     1    16    14    1
     2     9     7    1
     3    17    14    1
     4     8     7    1
     5    14    15    1
     6    14     1    1
     7     6     4    1
     8     7     4    1
     9     7     2    1
    10     4     5    1
    11     4     3    1
    12    13    10    1
    13    39    38    1
    14     2     1    1
    15     1    10    1
    16     1    18    1
    17    34    32    1
    18    40    38    1
    19    10    11    1
    20    10    12    1
    21    31    28    1
    22    59    37    1
    23    35    32    1
    24    38     3    1
    25    38    41    1
    26     3    37    1
    27    60    36    1
    28    32    33    1
    29    32    23    1
    30    20    18    1
    31    37    36    1
    32    37    58    1
    33    28    29    1
    34    28    30    1
    35    28    23    1
    36    18    21    1
    37    18    19    1
    38    36    22    1
    39    36    61    1
    40    57    41    1
    41    22    23    1
    42    41    56    1
    43    41    42    1
    44    23    24    1
    45    42    43    1
    46    24    25    1
    47    24    26    1
    48    24    27    1
    49    55    52    1
    50    43    52    1
    51    43    44    1
    52    43    48    1
    53    47    44    1
    54    46    44    1
    55    50    48    1
    56    51    48    1
    57    52    53    1
    58    52    54    1
    59    44    45    1
    60    48    49    1
