@<TRIPOS>MOLECULE
2,3,22,42
 61 60 0 0 0
SMALL
GASTEIGER

@<TRIPOS>ATOM
      1 SI         15.3997    2.4331    3.7718 Si      1  UNL1        0.0000
      2 N          14.8263    6.1992    2.4283 N.3     1  UNL1        0.0000
      3 N          15.3016    4.1613    3.8510 N.3     1  UNL1        0.0000
      4 C          16.0886    6.3553    3.1459 C.3     1  UNL1        0.0000
      5 H          15.9345    7.0594    3.9697 H       1  UNL1        0.0000
      6 H          16.8816    6.7616    2.4980 H       1  UNL1        0.0000
      7 C          16.4892    4.9718    3.7107 C.3     1  UNL1        0.0000
      8 H          17.2233    4.5015    3.0405 H       1  UNL1        0.0000
      9 H          17.0077    5.1155    4.6763 H       1  UNL1        0.0000
     10 C          15.4137    1.5771    5.4841 C.3     1  UNL1        0.0000
     11 H          15.6448    0.5236    5.3678 H       1  UNL1        0.0000
     12 H          14.4464    1.6445    5.9793 H       1  UNL1        0.0000
     13 H          16.1618    2.0038    6.1480 H       1  UNL1        0.0000
     14 C          16.9962    1.8791    2.8603 C.3     1  UNL1        0.0000
     15 H          16.9929    0.8014    2.7443 H       1  UNL1        0.0000
     16 H          17.8862    2.1396    3.4246 H       1  UNL1        0.0000
     17 H          17.0935    2.3110    1.8665 H       1  UNL1        0.0000
     18 C          13.9419    1.8119    2.6631 C.3     1  UNL1        0.0000
     19 H          14.3065    1.1898    1.8491 H       1  UNL1        0.0000
     20 H          13.3461    2.6297    2.2249 H       1  UNL1        0.0000
     21 H          13.2624    1.2045    3.2564 H       1  UNL1        0.0000
     22 N          13.4036    6.6738    4.4664 N.3     1  UNL1        0.0000
     23 SI         13.4832    6.7715    6.1947 Si      1  UNL1        0.0000
     24 C          11.7713    6.7856    7.0513 C.3     1  UNL1        0.0000
     25 H          11.8885    7.0138    8.1054 H       1  UNL1        0.0000
     26 H          11.2749    5.8191    6.9817 H       1  UNL1        0.0000
     27 H          11.1082    7.5357    6.6269 H       1  UNL1        0.0000
     28 C          14.3955    8.3675    6.7487 C.3     1  UNL1        0.0000
     29 H          14.5118    8.3639    7.8263 H       1  UNL1        0.0000
     30 H          13.8316    9.2577    6.4885 H       1  UNL1        0.0000
     31 H          15.3893    8.4644    6.3164 H       1  UNL1        0.0000
     32 C          14.5913    5.3130    6.8154 C.3     1  UNL1        0.0000
     33 H          15.4050    5.6772    7.4382 H       1  UNL1        0.0000
     34 H          15.0300    4.7179    5.9975 H       1  UNL1        0.0000
     35 H          13.9976    4.6332    7.4219 H       1  UNL1        0.0000
     36 C          13.5435    7.8616    3.6562 C.3     1  UNL1        0.0000
     37 C          14.1085    7.4614    2.2726 C.3     1  UNL1        0.0000
     38 C          14.9823    5.4817    1.1661 C.3     1  UNL1        0.0000
     39 H          15.6866    4.6580    1.3200 H       1  UNL1        0.0000
     40 H          15.3885    6.1297    0.3730 H       1  UNL1        0.0000
     41 C          13.5988    4.9167    0.7656 C.3     1  UNL1        0.0000
     42 N          12.7886    4.7762    1.9532 N.3     1  UNL1        0.0000
     43 SI         11.0603    4.8558    1.8555 Si      1  UNL1        0.0000
     44 C          10.2039    3.1437    1.8409 C.3     1  UNL1        0.0000
     45 H           9.1502    3.2606    1.6107 H       1  UNL1        0.0000
     46 H          10.2719    2.6480    2.8078 H       1  UNL1        0.0000
     47 H          10.6298    2.4802    1.0920 H       1  UNL1        0.0000
     48 C          10.5063    5.7683    0.2595 C.3     1  UNL1        0.0000
     49 H           9.4287    5.8846    0.2631 H       1  UNL1        0.0000
     50 H          10.7666    5.2045   -0.6308 H       1  UNL1        0.0000
     51 H          10.9386    6.7621    0.1628 H       1  UNL1        0.0000
     52 C          10.4393    5.9639    3.3138 C.3     1  UNL1        0.0000
     53 H           9.8170    6.7779    2.9496 H       1  UNL1        0.0000
     54 H          11.2570    6.4020    3.9096 H       1  UNL1        0.0000
     55 H           9.8321    5.3703    3.9931 H       1  UNL1        0.0000
     56 H          13.1284    5.5869    0.0316 H       1  UNL1        0.0000
     57 H          13.7426    3.9512    0.2470 H       1  UNL1        0.0000
     58 H          13.2848    7.3073    1.5684 H       1  UNL1        0.0000
     59 H          14.7562    8.2547    1.8664 H       1  UNL1        0.0000
     60 H          14.2136    8.5957    4.1265 H       1  UNL1        0.0000
     61 H          12.5778    8.3798    3.5125 H       1  UNL1        0.0000
@<TRIPOS>BOND
     1    50    48    1
     2    56    41    1
     3    51    48    1
     4    57    41    1
     5    48    49    1
     6    48    43    1
     7    40    38    1
     8    41    38    1
     9    41    42    1
    10    47    44    1
    11    38    39    1
    12    38     2    1
    13    58    37    1
    14    45    44    1
    15    44    43    1
    16    44    46    1
    17    19    18    1
    18    43    42    1
    19    43    52    1
    20    59    37    1
    21    17    14    1
    22    20    18    1
    23    37     2    1
    24    37    36    1
    25     2     4    1
    26     6     4    1
    27    18    21    1
    28    18     1    1
    29    15    14    1
    30    14    16    1
    31    14     1    1
    32    53    52    1
    33     8     7    1
    34     4     7    1
    35     4     5    1
    36    52    54    1
    37    52    55    1
    38    61    36    1
    39    36    60    1
    40    36    22    1
    41     7     3    1
    42     7     9    1
    43     1     3    1
    44     1    10    1
    45    22    23    1
    46    11    10    1
    47    10    12    1
    48    10    13    1
    49    34    32    1
    50    23    28    1
    51    23    32    1
    52    23    24    1
    53    31    28    1
    54    30    28    1
    55    27    24    1
    56    28    29    1
    57    32    35    1
    58    32    33    1
    59    26    24    1
    60    24    25    1
