@<TRIPOS>MOLECULE
1,16,28,43
 53 56 0 0 0
SMALL
GASTEIGER

@<TRIPOS>ATOM
      1 N           3.5216    3.8069    6.0111 N.pl3   1  UNL1        0.0000
      2 C           3.8818    3.2809    7.1702 C.2     1  UNL1        0.0000
      3 H           3.7286    2.2145    7.2890 H       1  UNL1        0.0000
      4 C           4.4424    4.0154    8.2199 C.2     1  UNL1        0.0000
      5 H           4.7161    3.5161    9.1367 H       1  UNL1        0.0000
      6 C           4.6337    5.3626    8.0585 C.2     1  UNL1        0.0000
      7 H           5.0653    5.9662    8.8438 H       1  UNL1        0.0000
      8 C           4.2634    5.9741    6.8437 C.2     1  UNL1        0.0000
      9 C           4.4226    7.3473    6.6082 C.2     1  UNL1        0.0000
     10 H           4.8499    7.9685    7.3802 H       1  UNL1        0.0000
     11 C           4.0281    7.8784    5.4027 C.2     1  UNL1        0.0000
     12 H           4.1467    8.9370    5.2209 H       1  UNL1        0.0000
     13 C           3.4786    7.0840    4.4072 C.2     1  UNL1        0.0000
     14 H           3.1804    7.5267    3.4712 H       1  UNL1        0.0000
     15 C           3.3137    5.7062    4.5649 C.2     1  UNL1        0.0000
     16 N           2.8044    4.8828    3.6305 N.pl3   1  UNL1        0.0000
     17 C           3.7113    5.1374    5.8271 C.3     1  UNL1        0.0000
     18 SI          1.9414    5.3800    2.2320 Si      1  UNL1        0.0000
     19 C           0.2888    6.2534    2.6601 C.3     1  UNL1        0.0000
     20 H           0.4613    7.2973    2.9009 H       1  UNL1        0.0000
     21 H          -0.1983    5.8026    3.5205 H       1  UNL1        0.0000
     22 H          -0.4077    6.2181    1.8288 H       1  UNL1        0.0000
     23 C           2.8494    6.4433    0.9266 C.3     1  UNL1        0.0000
     24 H           3.9265    6.3898    1.0458 H       1  UNL1        0.0000
     25 H           2.5654    7.4877    1.0114 H       1  UNL1        0.0000
     26 H           2.6021    6.1197   -0.0788 H       1  UNL1        0.0000
     27 O           1.5154    3.9301    1.5999 O.3     1  UNL1        0.0000
     28 N           2.9383    0.5127    4.5705 N.pl3   1  UNL1        0.0000
     29 C           3.0137   -0.0816    5.7475 C.2     1  UNL1        0.0000
     30 H           2.9012    0.5522    6.6204 H       1  UNL1        0.0000
     31 C           3.2015   -1.4588    5.9147 C.2     1  UNL1        0.0000
     32 H           3.2615   -1.8754    6.9085 H       1  UNL1        0.0000
     33 C           3.2949   -2.2522    4.8034 C.2     1  UNL1        0.0000
     34 H           3.4365   -3.3201    4.8862 H       1  UNL1        0.0000
     35 C           3.1945   -1.6690    3.5225 C.2     1  UNL1        0.0000
     36 C           3.2577   -2.4221    2.3413 C.3     1  UNL1        0.0000
     37 H           3.3910   -3.4910    2.4030 H       1  UNL1        0.0000
     38 C           3.1467   -1.7867    1.1262 C.2     1  UNL1        0.0000
     39 H           3.1948   -2.3651    0.2147 H       1  UNL1        0.0000
     40 C           2.9751   -0.4128    1.0407 C.2     1  UNL1        0.0000
     41 H           2.8927    0.0590    0.0750 H       1  UNL1        0.0000
     42 C           2.9033    0.3985    2.1768 C.2     1  UNL1        0.0000
     43 N           2.7291    1.7320    2.1554 N.pl3   1  UNL1        0.0000
     44 C           3.0187   -0.2548    3.4566 C.2     1  UNL1        0.0000
     45 SI          2.1563    2.6421    0.8134 Si      1  UNL1        0.0000
     46 C           0.7258    1.8521   -0.1760 C.3     1  UNL1        0.0000
     47 H           1.0800    1.4574   -1.1228 H       1  UNL1        0.0000
     48 H          -0.0520    2.5765   -0.3907 H       1  UNL1        0.0000
     49 H           0.2761    1.0329    0.3745 H       1  UNL1        0.0000
     50 C           3.4794    3.1908   -0.4641 C.3     1  UNL1        0.0000
     51 H           2.9997    3.5196   -1.3813 H       1  UNL1        0.0000
     52 H           4.1500    2.3771   -0.7256 H       1  UNL1        0.0000
     53 H           4.0808    4.0158   -0.1001 H       1  UNL1        0.0000
@<TRIPOS>BOND
     1    51    50    1
     2    47    46    1
     3    52    50    1
     4    50    53    1
     5    50    45    1
     6    48    46    1
     7    46    49    1
     8    46    45    1
     9    26    23    1
    10    41    40    1
    11    39    38    1
    12    45    27    1
    13    45    43    1
    14    23    25    1
    15    23    24    1
    16    23    18    1
    17    40    38    2
    18    40    42    1
    19    38    36    1
    20    27    18    1
    21    22    19    1
    22    43    42    1
    23    42    44    2
    24    18    19    1
    25    18    16    1
    26    36    37    1
    27    36    35    1
    28    19    20    1
    29    19    21    1
    30    44    35    1
    31    44    28    1
    32    14    13    1
    33    35    33    2
    34    16    15    1
    35    13    15    2
    36    13    11    1
    37    15    17    1
    38    28    29    1
    39    33    34    1
    40    33    31    1
    41    12    11    1
    42    11     9    2
    43    29    31    2
    44    29    30    1
    45    17     1    1
    46    17     8    1
    47    31    32    1
    48     1     2    1
    49     9     8    1
    50     9    10    1
    51     8     6    2
    52     2     3    1
    53     2     4    2
    54     6     4    1
    55     6     7    1
    56     4     5    1
