@<TRIPOS>MOLECULE
1,2,3,4
 46 48 0 0 0
SMALL
GASTEIGER

@<TRIPOS>ATOM
      1 N           3.8892    6.6724    9.1377 N.pl3   1  UNL1       -0.2524
      2 N           2.4138    4.5871    8.8332 N.pl3   1  UNL1       -0.2490
      3 N           2.4696    4.9484    6.0540 N.pl3   1  UNL1       -0.2526
      4 N           3.9893    7.0021    6.3550 N.3     1  UNL1       -0.2210
      5 C           4.1466    5.6809    9.9779 C.2     1  UNL1        0.0554
      6 C           5.2806    5.6837   10.8211 C.3     1  UNL1        0.0304
      7 C           5.6623    4.8685   11.8656 C.2     1  UNL1       -0.0744
      8 C           4.9853    3.8159   12.4572 C.2     1  UNL1       -0.0650
      9 C           3.7792    3.2811   12.0336 C.2     1  UNL1       -0.0602
     10 C           3.0333    3.5820   10.9159 C.2     1  UNL1       -0.0376
     11 C           3.1801    4.5644    9.9093 C.2     1  UNL1        0.0668
     12 C           1.4369    3.5473    8.5998 C.3     1  UNL1        0.0330
     13 C           0.6982    3.8136    7.2858 C.3     1  UNL1       -0.0180
     14 C           1.6432    3.7620    6.0854 C.3     1  UNL1        0.0326
     15 C           3.4215    5.0751    5.1412 C.2     1  UNL1        0.0531
     16 C           3.7167    4.0510    4.2136 C.2     1  UNL1       -0.0410
     17 C           4.5275    4.0141    3.0988 C.2     1  UNL1       -0.0602
     18 C           5.2553    5.0292    2.5027 C.2     1  UNL1       -0.0619
     19 C           5.4038    6.3192    2.9870 C.2     1  UNL1       -0.0635
     20 C           4.9686    6.8629    4.1747 C.2     1  UNL1       -0.0546
     21 C           4.1703    6.3471    5.2220 C.3     1  UNL1        0.1222
     22 C           4.6786    8.2479    6.6053 C.3     1  UNL1        0.0169
     23 C           4.2970    8.7836    7.9874 C.3     1  UNL1       -0.0213
     24 C           4.7435    7.8389    9.1033 C.3     1  UNL1        0.0323
     25 H           5.9864    6.4774   10.6177 H       1  UNL1        0.0414
     26 H           6.6144    5.1232   12.3183 H       1  UNL1        0.0579
     27 H           5.4404    3.3691   13.3308 H       1  UNL1        0.0615
     28 H           3.3845    2.4779   12.6460 H       1  UNL1        0.0618
     29 H           2.1585    2.9570   10.7983 H       1  UNL1        0.0637
     30 H           0.6934    3.5025    9.4126 H       1  UNL1        0.0482
     31 H           1.9252    2.5615    8.5458 H       1  UNL1        0.0482
     32 H           0.2313    4.8067    7.3265 H       1  UNL1        0.0297
     33 H          -0.0796    3.0557    7.1619 H       1  UNL1        0.0297
     34 H           2.2526    2.8484    6.1704 H       1  UNL1        0.0482
     35 H           1.0531    3.6836    5.1580 H       1  UNL1        0.0482
     36 H           3.2111    3.1147    4.4063 H       1  UNL1        0.0634
     37 H           4.5589    3.0570    2.5896 H       1  UNL1        0.0618
     38 H           5.7550    4.7938    1.5729 H       1  UNL1        0.0618
     39 H           5.9843    6.9883    2.3613 H       1  UNL1        0.0615
     40 H           5.2842    7.8867    4.3235 H       1  UNL1        0.0595
     41 H           4.4180    9.0116    5.8541 H       1  UNL1        0.0442
     42 H           5.7696    8.1028    6.5624 H       1  UNL1        0.0442
     43 H           4.7741    9.7567    8.1300 H       1  UNL1        0.0294
     44 H           3.2069    8.9046    8.0405 H       1  UNL1        0.0294
     45 H           4.7047    8.3687   10.0688 H       1  UNL1        0.0482
     46 H           5.7936    7.5635    8.9169 H       1  UNL1        0.0482
@<TRIPOS>BOND
     1    38    18    1
     2    39    19    1
     3    18    19    1
     4    18    17    2
     5    37    17    1
     6    19    20    2
     7    17    16    1
     8    20    40    1
     9    20    21    1
    10    16    36    1
    11    16    15    2
    12    15    21    1
    13    15     3    1
    14    35    14    1
    15    21     4    1
    16    41    22    1
    17     3    14    1
    18    14    34    1
    19    14    13    1
    20     4    22    1
    21    42    22    1
    22    22    23    1
    23    33    13    1
    24    13    32    1
    25    13    12    1
    26    23    44    1
    27    23    43    1
    28    23    24    1
    29    31    12    1
    30    12     2    1
    31    12    30    1
    32     2    11    1
    33    46    24    1
    34    24     1    1
    35    24    45    1
    36     1     5    1
    37    11     5    2
    38    11    10    1
    39     5     6    1
    40    25     6    1
    41    29    10    1
    42     6     7    1
    43    10     9    2
    44     7    26    1
    45     7     8    2
    46     9     8    1
    47     9    28    1
    48     8    27    1
