@<TRIPOS>MOLECULE
1,2,3,4
 55 57 0 0 0
SMALL
GASTEIGER

@<TRIPOS>ATOM
      1 N           4.4199    6.8400    3.7581 N.pl3   1  UNL1       -0.2526
      2 N           3.2809    8.3596    5.5401 N.3     1  UNL1       -0.2211
      3 N           1.4428    6.1374    5.0308 N.pl3   1  UNL1       -0.2524
      4 N           1.4883    6.0418    2.4785 N.pl3   1  UNL1       -0.2491
      5 C           5.1440    7.0751    4.8441 C.2     1  UNL1        0.0531
      6 C           6.3966    6.4467    5.0508 C.2     1  UNL1       -0.0410
      7 C           7.3738    6.5665    6.0145 C.2     1  UNL1       -0.0602
      8 C           7.4453    7.4220    7.1006 C.2     1  UNL1       -0.0619
      9 C           6.4706    8.3312    7.4694 C.2     1  UNL1       -0.0635
     10 C           5.2200    8.5452    6.9300 C.2     1  UNL1       -0.0546
     11 C           4.5300    8.0079    5.8198 C.3     1  UNL1        0.1222
     12 C           2.4925    9.1130    6.4980 C.3     1  UNL1        0.0155
     13 C           2.0510    8.2615    7.6978 C.3     1  UNL1       -0.0373
     14 C           1.0528    7.1668    7.3220 C.3     1  UNL1       -0.0343
     15 C           1.6552    6.0316    6.4630 C.3     1  UNL1        0.0312
     16 C           0.3402    5.6284    4.4917 C.2     1  UNL1        0.0554
     17 C          -0.7751    5.2496    5.2766 C.3     1  UNL1        0.0304
     18 C          -1.9407    4.5838    4.9718 C.2     1  UNL1       -0.0744
     19 C          -2.3222    3.9717    3.7875 C.2     1  UNL1       -0.0650
     20 C          -1.5905    3.9424    2.6137 C.2     1  UNL1       -0.0602
     21 C          -0.4010    4.5679    2.2984 C.2     1  UNL1       -0.0376
     22 C           0.4415    5.4326    3.0286 C.2     1  UNL1        0.0668
     23 C           2.0106    5.6135    1.1959 C.3     1  UNL1        0.0315
     24 C           2.7300    4.2523    1.3237 C.3     1  UNL1       -0.0355
     25 C           3.5314    4.0785    2.6193 C.3     1  UNL1       -0.0501
     26 C           4.9493    4.6447    2.5967 C.3     1  UNL1       -0.0355
     27 C           5.0323    6.1806    2.6140 C.3     1  UNL1        0.0311
     28 H           6.6352    5.6955    4.3133 H       1  UNL1        0.0634
     29 H           8.2219    5.9024    5.8878 H       1  UNL1        0.0618
     30 H           8.3393    7.3793    7.7074 H       1  UNL1        0.0618
     31 H           6.7096    8.9526    8.3254 H       1  UNL1        0.0615
     32 H           4.6710    9.3145    7.4551 H       1  UNL1        0.0595
     33 H           1.5985    9.4660    5.9788 H       1  UNL1        0.0441
     34 H           3.0186   10.0054    6.8653 H       1  UNL1        0.0441
     35 H           1.5822    8.9230    8.4310 H       1  UNL1        0.0279
     36 H           2.9266    7.8070    8.1672 H       1  UNL1        0.0279
     37 H           0.6676    6.7340    8.2491 H       1  UNL1        0.0281
     38 H           0.2113    7.6185    6.7922 H       1  UNL1        0.0281
     39 H           1.2673    5.0662    6.8193 H       1  UNL1        0.0482
     40 H           2.7399    6.0145    6.6170 H       1  UNL1        0.0482
     41 H          -0.7155    5.5647    6.3087 H       1  UNL1        0.0414
     42 H          -2.6463    4.4947    5.7902 H       1  UNL1        0.0579
     43 H          -3.2715    3.4535    3.7871 H       1  UNL1        0.0615
     44 H          -2.0285    3.3651    1.8069 H       1  UNL1        0.0618
     45 H          -0.0861    4.3884    1.2810 H       1  UNL1        0.0637
     46 H           2.7159    6.3799    0.8636 H       1  UNL1        0.0482
     47 H           1.2411    5.5342    0.4144 H       1  UNL1        0.0482
     48 H           3.3814    4.1124    0.4582 H       1  UNL1        0.0281
     49 H           1.9746    3.4643    1.2988 H       1  UNL1        0.0281
     50 H           2.9844    4.5303    3.4518 H       1  UNL1        0.0266
     51 H           3.6106    3.0062    2.8180 H       1  UNL1        0.0266
     52 H           5.4704    4.2912    1.7024 H       1  UNL1        0.0281
     53 H           5.4749    4.2409    3.4648 H       1  UNL1        0.0281
     54 H           6.0890    6.4705    2.5243 H       1  UNL1        0.0482
     55 H           4.5265    6.5622    1.7246 H       1  UNL1        0.0482
@<TRIPOS>BOND
     1    47    23    1
     2    48    24    1
     3    46    23    1
     4    23    24    1
     5    23     4    1
     6    45    21    1
     7    49    24    1
     8    24    25    1
     9    52    26    1
    10    55    27    1
    11    44    20    1
    12    21    20    2
    13    21    22    1
    14     4    22    1
    15    54    27    1
    16    26    27    1
    17    26    25    1
    18    26    53    1
    19    20    19    1
    20    27     1    1
    21    25    51    1
    22    25    50    1
    23    22    16    2
    24     1     5    1
    25    43    19    1
    26    19    18    2
    27    28     6    1
    28    16     3    1
    29    16    17    1
    30     5     6    2
    31     5    11    1
    32    18    17    1
    33    18    42    1
    34     3    15    1
    35     6     7    1
    36    17    41    1
    37     2    11    1
    38     2    12    1
    39    11    10    1
    40    29     7    1
    41    33    12    1
    42     7     8    2
    43    15    40    1
    44    15    39    1
    45    15    14    1
    46    12    34    1
    47    12    13    1
    48    38    14    1
    49    10    32    1
    50    10     9    2
    51     8     9    1
    52     8    30    1
    53    14    13    1
    54    14    37    1
    55     9    31    1
    56    13    36    1
    57    13    35    1
