@<TRIPOS>MOLECULE
1,2,3,4
 52 54 0 0 0
SMALL
GASTEIGER

@<TRIPOS>ATOM
      1 N          -7.7215   -6.4916  -15.9403 N.pl3   1  UNL1       -0.2526
      2 N          -6.7116   -8.8638  -16.4613 N.3     1  UNL1       -0.2211
      3 N          -5.8426   -9.3168  -13.7048 N.pl3   1  UNL1       -0.2524
      4 N          -7.6366   -7.4606  -13.1811 N.pl3   1  UNL1       -0.2491
      5 C          -8.3621   -7.2194  -16.8412 C.2     1  UNL1        0.0531
      6 C          -9.2852   -6.6688  -17.7590 C.2     1  UNL1       -0.0410
      7 C         -10.2206   -7.2432  -18.5911 C.2     1  UNL1       -0.0602
      8 C         -10.6147   -8.5689  -18.6718 C.2     1  UNL1       -0.0619
      9 C          -9.9938   -9.6369  -18.0449 C.2     1  UNL1       -0.0635
     10 C          -8.8086   -9.6656  -17.3412 C.2     1  UNL1       -0.0546
     11 C          -7.9382   -8.6373  -16.9028 C.3     1  UNL1        0.1222
     12 C          -6.1311  -10.1732  -16.7217 C.3     1  UNL1        0.0155
     13 C          -6.4744  -11.2455  -15.6598 C.3     1  UNL1       -0.0373
     14 C          -5.3376  -11.5451  -14.6803 C.3     1  UNL1       -0.0343
     15 C          -4.7920  -10.2780  -13.9923 C.3     1  UNL1        0.0312
     16 C          -6.7591   -9.6197  -12.7993 C.2     1  UNL1        0.0554
     17 C          -6.6067  -10.6769  -11.8739 C.3     1  UNL1        0.0304
     18 C          -7.4962  -11.3100  -11.0343 C.2     1  UNL1       -0.0744
     19 C          -8.8714  -11.1622  -10.9543 C.2     1  UNL1       -0.0650
     20 C          -9.6181  -10.1847  -11.5919 C.2     1  UNL1       -0.0602
     21 C          -9.1878   -9.0855  -12.3039 C.2     1  UNL1       -0.0376
     22 C          -7.9023   -8.6797  -12.7403 C.2     1  UNL1        0.0668
     23 C          -8.6224   -6.4216  -12.9196 C.3     1  UNL1        0.0315
     24 C          -9.7422   -6.3214  -13.9831 C.3     1  UNL1       -0.0341
     25 C          -9.5749   -5.1569  -14.9616 C.3     1  UNL1       -0.0341
     26 C          -8.1958   -5.1493  -15.6510 C.3     1  UNL1        0.0312
     27 H          -9.2325   -5.5900  -17.8402 H       1  UNL1        0.0634
     28 H         -10.7691   -6.5492  -19.2178 H       1  UNL1        0.0618
     29 H         -11.4765   -8.7904  -19.2864 H       1  UNL1        0.0618
     30 H         -10.4700  -10.6017  -18.1802 H       1  UNL1        0.0615
     31 H          -8.5094  -10.6587  -17.0367 H       1  UNL1        0.0595
     32 H          -5.0453  -10.0429  -16.7706 H       1  UNL1        0.0441
     33 H          -6.4578  -10.5258  -17.7117 H       1  UNL1        0.0441
     34 H          -7.3475  -10.9142  -15.0885 H       1  UNL1        0.0279
     35 H          -6.7405  -12.1821  -16.1568 H       1  UNL1        0.0279
     36 H          -5.7204  -12.2395  -13.9286 H       1  UNL1        0.0281
     37 H          -4.5159  -12.0385  -15.2043 H       1  UNL1        0.0281
     38 H          -4.2358  -10.5754  -13.0903 H       1  UNL1        0.0482
     39 H          -4.0799   -9.7844  -14.6588 H       1  UNL1        0.0482
     40 H          -5.5910  -11.0436  -11.7909 H       1  UNL1        0.0414
     41 H          -7.0669  -12.0772  -10.4001 H       1  UNL1        0.0579
     42 H          -9.4078  -11.8659  -10.3328 H       1  UNL1        0.0615
     43 H         -10.6921  -10.2532  -11.4588 H       1  UNL1        0.0618
     44 H          -9.9890   -8.4305  -12.6163 H       1  UNL1        0.0637
     45 H          -8.0854   -5.4691  -12.8666 H       1  UNL1        0.0482
     46 H          -9.0750   -6.5906  -11.9309 H       1  UNL1        0.0482
     47 H          -9.7752   -7.2542  -14.5550 H       1  UNL1        0.0281
     48 H         -10.7092   -6.2031  -13.4871 H       1  UNL1        0.0281
     49 H          -9.7075   -4.2084  -14.4366 H       1  UNL1        0.0281
     50 H         -10.3647   -5.2373  -15.7122 H       1  UNL1        0.0281
     51 H          -8.2527   -4.5209  -16.5528 H       1  UNL1        0.0482
     52 H          -7.4626   -4.6872  -14.9852 H       1  UNL1        0.0482
@<TRIPOS>BOND
     1    29     8    1
     2    28     7    1
     3     8     7    2
     4     8     9    1
     5     7     6    1
     6    30     9    1
     7     9    10    2
     8    27     6    1
     9     6     5    2
    10    33    12    1
    11    10    31    1
    12    10    11    1
    13    11     5    1
    14    11     2    1
    15     5     1    1
    16    32    12    1
    17    12     2    1
    18    12    13    1
    19    51    26    1
    20    35    13    1
    21     1    26    1
    22    50    25    1
    23    13    34    1
    24    13    14    1
    25    26    52    1
    26    26    25    1
    27    37    14    1
    28    25    49    1
    29    25    24    1
    30    14    15    1
    31    14    36    1
    32    39    15    1
    33    47    24    1
    34    15     3    1
    35    15    38    1
    36    24    48    1
    37    24    23    1
    38     3    16    1
    39     4    23    1
    40     4    22    1
    41    23    45    1
    42    23    46    1
    43    16    22    2
    44    16    17    1
    45    22    21    1
    46    44    21    1
    47    21    20    2
    48    17    40    1
    49    17    18    1
    50    20    43    1
    51    20    19    1
    52    18    19    2
    53    18    41    1
    54    19    42    1
