@<TRIPOS>MOLECULE
1,2,3,4
 46 48 0 0 0
SMALL
GASTEIGER

@<TRIPOS>ATOM
      1 N          -3.8366   -6.7169   -9.1095 N.pl3   1  UNL1       -0.2526
      2 N          -2.3355   -4.6265   -8.8550 N.3     1  UNL1       -0.2210
      3 N          -2.3934   -4.9738   -6.0959 N.pl3   1  UNL1       -0.2524
      4 N          -3.9020   -7.0590   -6.3518 N.pl3   1  UNL1       -0.2490
      5 C          -4.1127   -5.7160   -9.9330 C.2     1  UNL1        0.0531
      6 C          -5.2948   -5.6731  -10.7075 C.2     1  UNL1       -0.0410
      7 C          -5.6879   -4.8598  -11.7502 C.2     1  UNL1       -0.0602
      8 C          -4.9812   -3.8730  -12.4151 C.2     1  UNL1       -0.0619
      9 C          -3.7247   -3.3964  -12.0729 C.2     1  UNL1       -0.0635
     10 C          -2.9520   -3.6898  -10.9725 C.2     1  UNL1       -0.0546
     11 C          -3.1137   -4.6236   -9.9203 C.3     1  UNL1        0.1222
     12 C          -1.3544   -3.5838   -8.6571 C.3     1  UNL1        0.0169
     13 C          -0.6287   -3.8170   -7.3282 C.3     1  UNL1       -0.0213
     14 C          -1.6036   -3.7620   -6.1499 C.3     1  UNL1        0.0323
     15 C          -3.3610   -5.0883   -5.1976 C.2     1  UNL1        0.0554
     16 C          -3.7235   -4.0317   -4.3310 C.3     1  UNL1        0.0304
     17 C          -4.5412   -3.9860   -3.2207 C.2     1  UNL1       -0.0744
     18 C          -5.1921   -5.0137   -2.5610 C.2     1  UNL1       -0.0650
     19 C          -5.2532   -6.3375   -2.9690 C.2     1  UNL1       -0.0602
     20 C          -4.8076   -6.9093   -4.1385 C.2     1  UNL1       -0.0376
     21 C          -4.0684   -6.3883   -5.2281 C.2     1  UNL1        0.0668
     22 C          -4.5868   -8.3131   -6.5681 C.3     1  UNL1        0.0330
     23 C          -4.2537   -8.8378   -7.9682 C.3     1  UNL1       -0.0180
     24 C          -4.7202   -7.8618   -9.0505 C.3     1  UNL1        0.0326
     25 H          -6.0344   -6.4163  -10.4414 H       1  UNL1        0.0634
     26 H          -6.6791   -5.0653  -12.1397 H       1  UNL1        0.0618
     27 H          -5.4533   -3.4313  -13.2821 H       1  UNL1        0.0618
     28 H          -3.3116   -2.6475  -12.7396 H       1  UNL1        0.0615
     29 H          -2.0370   -3.1145  -10.9149 H       1  UNL1        0.0595
     30 H          -1.8407   -2.5936   -8.6390 H       1  UNL1        0.0442
     31 H          -0.6044   -3.5679   -9.4669 H       1  UNL1        0.0442
     32 H          -0.1571   -4.8108   -7.3489 H       1  UNL1        0.0294
     33 H           0.1389   -3.0486   -7.2013 H       1  UNL1        0.0294
     34 H          -1.0406   -3.6346   -5.2096 H       1  UNL1        0.0482
     35 H          -2.2402   -2.8699   -6.2793 H       1  UNL1        0.0482
     36 H          -3.2814   -3.0755   -4.5776 H       1  UNL1        0.0414
     37 H          -4.6403   -3.0054   -2.7677 H       1  UNL1        0.0579
     38 H          -5.6995   -4.7612   -1.6398 H       1  UNL1        0.0615
     39 H          -5.7717   -7.0104   -2.2950 H       1  UNL1        0.0618
     40 H          -5.0517   -7.9591   -4.2332 H       1  UNL1        0.0637
     41 H          -5.6782   -8.1778   -6.4783 H       1  UNL1        0.0482
     42 H          -4.2873   -9.0759   -5.8285 H       1  UNL1        0.0482
     43 H          -4.7466   -9.8031   -8.1134 H       1  UNL1        0.0297
     44 H          -3.1643   -8.9630   -8.0531 H       1  UNL1        0.0297
     45 H          -4.7402   -8.3759  -10.0267 H       1  UNL1        0.0482
     46 H          -5.7550   -7.5614   -8.8123 H       1  UNL1        0.0482
@<TRIPOS>BOND
     1    27     8    1
     2    28     9    1
     3     8     9    1
     4     8     7    2
     5    26     7    1
     6     9    10    2
     7     7     6    1
     8    10    29    1
     9    10    11    1
    10     6    25    1
    11     6     5    2
    12    45    24    1
    13     5    11    1
    14     5     1    1
    15    11     2    1
    16    31    12    1
    17     1    24    1
    18    24    46    1
    19    24    23    1
    20     2    12    1
    21    12    30    1
    22    12    13    1
    23    43    23    1
    24    44    23    1
    25    23    22    1
    26    32    13    1
    27    13    33    1
    28    13    14    1
    29    22    41    1
    30    22     4    1
    31    22    42    1
    32     4    21    1
    33    35    14    1
    34    14     3    1
    35    14    34    1
    36     3    15    1
    37    21    15    2
    38    21    20    1
    39    15    16    1
    40    36    16    1
    41    16    17    1
    42    40    20    1
    43    20    19    2
    44    17    37    1
    45    17    18    2
    46    19    18    1
    47    19    39    1
    48    18    38    1
