@<TRIPOS>MOLECULE
1,2,3,4
 61 60 0 0 0
SMALL
GASTEIGER

@<TRIPOS>ATOM
      1 N          -2.3623    3.2921    5.9559 N.3     1  UNL1        0.0000
      2 N          -0.5803    5.8417    4.4639 N.3     1  UNL1        0.0000
      3 N          -0.3312    5.3911    7.9082 N.3     1  UNL1        0.0000
      4 N          -2.6202    6.0583    6.3722 N.3     1  UNL1        0.0000
      5 SI         -2.4731    1.9118    6.9487 Si      1  UNL1        0.0000
      6 SI         -0.5548    5.1924    2.8862 Si      1  UNL1        0.0000
      7 SI          1.0495    6.3873    8.0701 Si      1  UNL1        0.0000
      8 C          -3.5189    3.9841    5.4403 C.3     1  UNL1        0.0000
      9 H          -4.4145    3.3470    5.4192 H       1  UNL1        0.0000
     10 H          -3.3269    4.3233    4.4063 H       1  UNL1        0.0000
     11 C          -1.1057    7.1461    4.7808 C.3     1  UNL1        0.0000
     12 H          -1.0867    7.8275    3.9176 H       1  UNL1        0.0000
     13 H          -0.5011    7.6086    5.5808 H       1  UNL1        0.0000
     14 C          -1.5745    5.7279    8.5664 C.3     1  UNL1        0.0000
     15 H          -1.4104    6.2173    9.5381 H       1  UNL1        0.0000
     16 H          -2.1592    4.8097    8.7534 H       1  UNL1        0.0000
     17 C          -3.8131    5.2117    6.3275 C.3     1  UNL1        0.0000
     18 H          -4.6918    5.7689    5.9654 H       1  UNL1        0.0000
     19 H          -4.0274    4.8415    7.3345 H       1  UNL1        0.0000
     20 C          -2.5661    7.0145    5.2649 C.3     1  UNL1        0.0000
     21 H          -2.9816    7.9928    5.5545 H       1  UNL1        0.0000
     22 H          -3.1511    6.6236    4.4276 H       1  UNL1        0.0000
     23 C          -2.4079    6.6794    7.6798 C.3     1  UNL1        0.0000
     24 H          -3.3630    6.9365    8.1653 H       1  UNL1        0.0000
     25 H          -1.8287    7.5965    7.5484 H       1  UNL1        0.0000
     26 C          -4.1608    1.6989    7.8486 C.3     1  UNL1        0.0000
     27 H          -4.3750    2.5205    8.5263 H       1  UNL1        0.0000
     28 H          -4.1802    0.7830    8.4289 H       1  UNL1        0.0000
     29 H          -4.9750    1.6434    7.1331 H       1  UNL1        0.0000
     30 C          -1.1193    2.1006    8.3018 C.3     1  UNL1        0.0000
     31 H          -0.6075    3.0654    8.1911 H       1  UNL1        0.0000
     32 H          -0.3796    1.3098    8.2218 H       1  UNL1        0.0000
     33 H          -1.5315    2.0453    9.3058 H       1  UNL1        0.0000
     34 C          -2.1833    0.2768    5.9781 C.3     1  UNL1        0.0000
     35 H          -1.2927    0.3415    5.3581 H       1  UNL1        0.0000
     36 H          -3.0192    0.0507    5.3229 H       1  UNL1        0.0000
     37 H          -2.0586   -0.5665    6.6499 H       1  UNL1        0.0000
     38 C          -0.7936    3.2933    3.0377 C.3     1  UNL1        0.0000
     39 H           0.1736    2.7972    3.0258 H       1  UNL1        0.0000
     40 H          -1.3698    2.8909    2.2096 H       1  UNL1        0.0000
     41 H          -1.2960    3.0204    3.9730 H       1  UNL1        0.0000
     42 C          -1.9356    5.8636    1.7180 C.3     1  UNL1        0.0000
     43 H          -1.9476    6.9491    1.7173 H       1  UNL1        0.0000
     44 H          -2.9263    5.5234    2.0076 H       1  UNL1        0.0000
     45 H          -1.7685    5.5443    0.6952 H       1  UNL1        0.0000
     46 C           1.1210    5.5262    2.0063 C.3     1  UNL1        0.0000
     47 H           1.9438    5.1621    2.6160 H       1  UNL1        0.0000
     48 H           1.2825    6.5856    1.8308 H       1  UNL1        0.0000
     49 H           1.1731    5.0236    1.0462 H       1  UNL1        0.0000
     50 C           2.1776    5.8631    9.5403 C.3     1  UNL1        0.0000
     51 H           1.6877    6.0399   10.4933 H       1  UNL1        0.0000
     52 H           3.1021    6.4314    9.5404 H       1  UNL1        0.0000
     53 H           2.4416    4.8111    9.5019 H       1  UNL1        0.0000
     54 C           2.0282    6.3095    6.4185 C.3     1  UNL1        0.0000
     55 H           2.8540    5.6084    6.4853 H       1  UNL1        0.0000
     56 H           2.4590    7.2764    6.1738 H       1  UNL1        0.0000
     57 H           1.3897    5.9962    5.5821 H       1  UNL1        0.0000
     58 C           0.7079    8.2566    8.4215 C.3     1  UNL1        0.0000
     59 H           0.0039    8.3754    9.2400 H       1  UNL1        0.0000
     60 H           0.3066    8.7847    7.5603 H       1  UNL1        0.0000
     61 H           1.6214    8.7645    8.7121 H       1  UNL1        0.0000
@<TRIPOS>BOND
     1    45    42    1
     2    49    46    1
     3    43    42    1
     4    42    44    1
     5    42     6    1
     6    48    46    1
     7    46    47    1
     8    46     6    1
     9    40    38    1
    10     6    38    1
    11     6     2    1
    12    39    38    1
    13    38    41    1
    14    12    11    1
    15    10     8    1
    16    22    20    1
    17     2    11    1
    18    11    20    1
    19    11    13    1
    20    20    21    1
    21    20     4    1
    22    36    34    1
    23    35    34    1
    24     9     8    1
    25     8     1    1
    26     8    17    1
    27    57    54    1
    28     1     5    1
    29    18    17    1
    30    34    37    1
    31    34     5    1
    32    56    54    1
    33    17     4    1
    34    17    19    1
    35     4    23    1
    36    54    55    1
    37    54     7    1
    38     5    26    1
    39     5    30    1
    40    29    26    1
    41    25    23    1
    42    60    58    1
    43    23    24    1
    44    23    14    1
    45    26    28    1
    46    26    27    1
    47     3     7    1
    48     3    14    1
    49     7    58    1
    50     7    50    1
    51    31    30    1
    52    32    30    1
    53    30    33    1
    54    58    61    1
    55    58    59    1
    56    14    16    1
    57    14    15    1
    58    53    50    1
    59    50    52    1
    60    50    51    1
