@<TRIPOS>MOLECULE
1,2,3,4
 61 60 0 0 0
SMALL
GASTEIGER

@<TRIPOS>ATOM
      1 N           9.0135    2.9367    6.1893 N.3     1  UNL1        0.0000
      2 N          10.0588    4.6568    3.3429 N.3     1  UNL1        0.0000
      3 N           6.9747    5.3396    4.9436 N.3     1  UNL1        0.0000
      4 N           9.6242    5.6423    5.9238 N.3     1  UNL1        0.0000
      5 SI          9.7391    1.3955    6.1214 Si      1  UNL1        0.0000
      6 SI          9.7113    5.5789    1.9465 Si      1  UNL1        0.0000
      7 SI          5.6086    4.9657    5.9031 Si      1  UNL1        0.0000
      8 C           9.0275    3.7645    7.3707 C.3     1  UNL1        0.0000
      9 H           9.3443    3.2110    8.2652 H       1  UNL1        0.0000
     10 H           8.0213    4.1710    7.5662 H       1  UNL1        0.0000
     11 C          11.1940    5.0006    4.1717 C.3     1  UNL1        0.0000
     12 H          12.0487    5.3574    3.5777 H       1  UNL1        0.0000
     13 H          11.5281    4.1154    4.7411 H       1  UNL1        0.0000
     14 C           7.5704    6.6541    5.0321 C.3     1  UNL1        0.0000
     15 H           6.8241    7.4357    5.2386 H       1  UNL1        0.0000
     16 H           8.0572    6.9067    4.0768 H       1  UNL1        0.0000
     17 C          10.0076    4.9322    7.1451 C.3     1  UNL1        0.0000
     18 H          10.0390    5.6079    8.0146 H       1  UNL1        0.0000
     19 H          11.0024    4.4981    7.0055 H       1  UNL1        0.0000
     20 C          10.7835    6.1079    5.1628 C.3     1  UNL1        0.0000
     21 H          11.6189    6.3849    5.8247 H       1  UNL1        0.0000
     22 H          10.5009    6.9851    4.5772 H       1  UNL1        0.0000
     23 C           8.6269    6.6878    6.1587 C.3     1  UNL1        0.0000
     24 H           9.0937    7.6823    6.2311 H       1  UNL1        0.0000
     25 H           8.1077    6.4825    7.0975 H       1  UNL1        0.0000
     26 C          11.1572    1.1471    7.3979 C.3     1  UNL1        0.0000
     27 H          11.9359    1.8972    7.2952 H       1  UNL1        0.0000
     28 H          11.6214    0.1742    7.2815 H       1  UNL1        0.0000
     29 H          10.7787    1.2032    8.4132 H       1  UNL1        0.0000
     30 C           8.4980   -0.0456    6.3946 C.3     1  UNL1        0.0000
     31 H           7.6992    0.0009    5.6587 H       1  UNL1        0.0000
     32 H           8.0437   -0.0057    7.3803 H       1  UNL1        0.0000
     33 H           8.9814   -1.0120    6.2950 H       1  UNL1        0.0000
     34 C          10.4888    1.2598    4.3591 C.3     1  UNL1        0.0000
     35 H           9.9209    0.5587    3.7545 H       1  UNL1        0.0000
     36 H          11.5189    0.9166    4.3671 H       1  UNL1        0.0000
     37 H          10.4542    2.2376    3.8679 H       1  UNL1        0.0000
     38 C           9.9707    7.4978    1.9950 C.3     1  UNL1        0.0000
     39 H           9.3135    8.0186    2.6867 H       1  UNL1        0.0000
     40 H           9.7966    7.9228    1.0110 H       1  UNL1        0.0000
     41 H          10.9949    7.7396    2.2668 H       1  UNL1        0.0000
     42 C           7.8404    5.2653    1.6507 C.3     1  UNL1        0.0000
     43 H           7.3347    4.9870    2.5913 H       1  UNL1        0.0000
     44 H           7.7029    4.4633    0.9309 H       1  UNL1        0.0000
     45 H           7.3489    6.1458    1.2468 H       1  UNL1        0.0000
     46 C          10.7792    5.0731    0.4266 C.3     1  UNL1        0.0000
     47 H          10.1600    4.7203   -0.3904 H       1  UNL1        0.0000
     48 H          11.4724    4.2767    0.6773 H       1  UNL1        0.0000
     49 H          11.3638    5.9085    0.0558 H       1  UNL1        0.0000
     50 C           5.7230    3.1271    6.4318 C.3     1  UNL1        0.0000
     51 H           6.6142    2.6441    6.0150 H       1  UNL1        0.0000
     52 H           4.8494    2.5876    6.0863 H       1  UNL1        0.0000
     53 H           5.7561    3.0190    7.5120 H       1  UNL1        0.0000
     54 C           3.9638    5.2982    4.9720 C.3     1  UNL1        0.0000
     55 H           3.7872    6.3618    4.8425 H       1  UNL1        0.0000
     56 H           3.1193    4.8905    5.5174 H       1  UNL1        0.0000
     57 H           3.9678    4.8415    3.9880 H       1  UNL1        0.0000
     58 C           5.4257    5.9875    7.5343 C.3     1  UNL1        0.0000
     59 H           5.5228    7.0521    7.3423 H       1  UNL1        0.0000
     60 H           6.1587    5.7207    8.2915 H       1  UNL1        0.0000
     61 H           4.4443    5.8315    7.9700 H       1  UNL1        0.0000
@<TRIPOS>BOND
     1    47    46    1
     2    49    46    1
     3    46    48    1
     4    46     6    1
     5    44    42    1
     6    40    38    1
     7    45    42    1
     8    42     6    1
     9    42    43    1
    10     6    38    1
    11     6     2    1
    12    38    41    1
    13    38    39    1
    14     2    11    1
    15    12    11    1
    16    35    34    1
    17    37    34    1
    18    57    54    1
    19    16    14    1
    20    11    13    1
    21    11    20    1
    22    34    36    1
    23    34     5    1
    24    22    20    1
    25    55    54    1
    26     3    14    1
    27     3     7    1
    28    54    56    1
    29    54     7    1
    30    14    15    1
    31    14    23    1
    32    20    21    1
    33    20     4    1
    34    31    30    1
    35     7    50    1
    36     7    58    1
    37     4    23    1
    38     4    17    1
    39    51    50    1
    40    52    50    1
    41     5     1    1
    42     5    30    1
    43     5    26    1
    44    23    24    1
    45    23    25    1
    46     1     8    1
    47    33    30    1
    48    30    32    1
    49    50    53    1
    50    19    17    1
    51    17     8    1
    52    17    18    1
    53    28    26    1
    54    27    26    1
    55    59    58    1
    56     8    10    1
    57     8     9    1
    58    26    29    1
    59    58    61    1
    60    58    60    1
