@<TRIPOS>MOLECULE
1,14,21,34
 92 93 0 0 0
SMALL
GASTEIGER

@<TRIPOS>ATOM
      1 N           9.9065    2.6710    6.1587 N.pl3   1  UNL1       -0.2371
      2 C          11.0838    3.2797    6.2158 C.3     1  UNL1        0.0968
      3 C          11.4634    4.1064    7.4278 C.3     1  UNL1       -0.0359
      4 H          10.9911    3.7197    8.3278 H       1  UNL1        0.0255
      5 H          11.1291    5.1346    7.2864 H       1  UNL1        0.0255
      6 H          12.5413    4.1207    7.5677 H       1  UNL1        0.0255
      7 C          12.0549    3.1851    5.2158 C.2     1  UNL1       -0.0387
      8 H          12.9042    3.8466    5.3108 H       1  UNL1        0.0610
      9 C          12.1585    2.1646    4.2589 C.2     1  UNL1        0.0204
     10 C          13.4830    2.0223    3.5465 C.3     1  UNL1       -0.0253
     11 H          14.0157    1.1436    3.9119 H       1  UNL1        0.0290
     12 H          14.1109    2.8932    3.7099 H       1  UNL1        0.0290
     13 H          13.3235    1.8980    2.4764 H       1  UNL1        0.0290
     14 N          11.1962    1.2823    4.0825 N.pl3   1  UNL1       -0.2538
     15 C          11.4803    0.0609    3.3591 C.3     1  UNL1        0.0484
     16 H          12.3839   -0.4277    3.7558 H       1  UNL1        0.0498
     17 H          11.6480    0.2534    2.2905 H       1  UNL1        0.0498
     18 C          10.3095   -0.9259    3.5179 C.3     1  UNL1        0.0484
     19 H          10.5540   -1.8254    2.9447 H       1  UNL1        0.0498
     20 H          10.2425   -1.2076    4.5777 H       1  UNL1        0.0498
     21 N           9.0339   -0.3304    3.1456 N.pl3   1  UNL1       -0.2538
     22 C           8.2275   -0.9579    2.3191 C.2     1  UNL1        0.0204
     23 C           8.6331   -2.2446    1.6223 C.3     1  UNL1       -0.0253
     24 H           9.5640   -2.1128    1.0724 H       1  UNL1        0.0290
     25 H           7.8675   -2.5502    0.9162 H       1  UNL1        0.0290
     26 H           8.7667   -3.0481    2.3461 H       1  UNL1        0.0290
     27 C           6.9108   -0.5453    2.0595 C.2     1  UNL1       -0.0387
     28 H           6.3771   -1.1658    1.3531 H       1  UNL1        0.0610
     29 C           6.1171    0.4476    2.6367 C.3     1  UNL1        0.0968
     30 C           4.6502    0.3426    2.2593 C.3     1  UNL1       -0.0359
     31 H           4.0828    1.2094    2.5846 H       1  UNL1        0.0255
     32 H           4.2118   -0.5424    2.7193 H       1  UNL1        0.0255
     33 H           4.5536    0.2375    1.1804 H       1  UNL1        0.0255
     34 N           6.5296    1.3981    3.4666 N.pl3   1  UNL1       -0.2371
     35 C           9.2441    2.3841    7.3799 C.ar    1  UNL1        0.0557
     36 C           9.5328    1.1570    8.0085 C.ar    1  UNL1       -0.0219
     37 C          10.5758    0.2274    7.4285 C.3     1  UNL1       -0.0197
     38 H          10.7426    0.5167    6.3838 H       1  UNL1        0.0344
     39 C          10.1393   -1.2383    7.4498 C.3     1  UNL1       -0.0586
     40 H           9.1788   -1.3575    6.9539 H       1  UNL1        0.0235
     41 H          10.0551   -1.6163    8.4658 H       1  UNL1        0.0235
     42 H          10.8767   -1.8487    6.9311 H       1  UNL1        0.0235
     43 C          11.8958    0.3944    8.1880 C.3     1  UNL1       -0.0586
     44 H          12.6525   -0.2730    7.7804 H       1  UNL1        0.0235
     45 H          11.7620    0.1626    9.2431 H       1  UNL1        0.0235
     46 H          12.2571    1.4153    8.1013 H       1  UNL1        0.0235
     47 C           8.8831    0.8348    9.1892 C.ar    1  UNL1       -0.0565
     48 H           9.1131   -0.0923    9.6915 H       1  UNL1        0.0621
     49 C           7.9452    1.6851    9.7447 C.ar    1  UNL1       -0.0611
     50 H           7.4405    1.4134   10.6603 H       1  UNL1        0.0618
     51 C           7.6702    2.8906    9.1304 C.ar    1  UNL1       -0.0565
     52 H           6.9479    3.5589    9.5743 H       1  UNL1        0.0621
     53 C           8.3263    3.2660    7.9667 C.ar    1  UNL1       -0.0219
     54 C           8.0449    4.6132    7.3450 C.3     1  UNL1       -0.0197
     55 H           8.7967    4.7959    6.5729 H       1  UNL1        0.0344
     56 C           6.6707    4.5876    6.6768 C.3     1  UNL1       -0.0586
     57 H           6.6449    3.8156    5.9068 H       1  UNL1        0.0235
     58 H           6.4474    5.5497    6.2205 H       1  UNL1        0.0235
     59 H           5.8919    4.3666    7.4032 H       1  UNL1        0.0235
     60 C           8.1307    5.7508    8.3649 C.3     1  UNL1       -0.0586
     61 H           8.0819    6.7101    7.8536 H       1  UNL1        0.0235
     62 H           9.0655    5.7017    8.9189 H       1  UNL1        0.0235
     63 H           7.3093    5.7074    9.0753 H       1  UNL1        0.0235
     64 C           5.5219    2.1097    4.1738 C.ar    1  UNL1        0.0557
     65 C           5.1265    3.4008    3.7857 C.ar    1  UNL1       -0.0219
     66 C           5.7451    4.0948    2.5913 C.3     1  UNL1       -0.0197
     67 H           6.7103    3.6195    2.3534 H       1  UNL1        0.0344
     68 C           6.0032    5.5795    2.8628 C.3     1  UNL1       -0.0586
     69 H           6.4648    5.7224    3.8356 H       1  UNL1        0.0235
     70 H           5.0792    6.1530    2.8302 H       1  UNL1        0.0235
     71 H           6.6738    5.9753    2.1066 H       1  UNL1        0.0235
     72 C           4.8277    3.9572    1.3716 C.3     1  UNL1       -0.0586
     73 H           4.7425    2.9201    1.0622 H       1  UNL1        0.0235
     74 H           5.2294    4.5317    0.5403 H       1  UNL1        0.0235
     75 H           3.8319    4.3335    1.6018 H       1  UNL1        0.0235
     76 C           4.1201    4.0367    4.5023 C.ar    1  UNL1       -0.0565
     77 H           3.7871    5.0160    4.1973 H       1  UNL1        0.0621
     78 C           3.5329    3.4374    5.5981 C.ar    1  UNL1       -0.0611
     79 H           2.7563    3.9504    6.1458 H       1  UNL1        0.0618
     80 C           3.9396    2.1753    5.9896 C.ar    1  UNL1       -0.0565
     81 H           3.4795    1.7191    6.8513 H       1  UNL1        0.0621
     82 C           4.9096    1.4867    5.2792 C.ar    1  UNL1       -0.0219
     83 C           5.3445    0.1010    5.7046 C.3     1  UNL1       -0.0197
     84 H           5.6629   -0.4527    4.8165 H       1  UNL1        0.0344
     85 C           6.5540    0.2192    6.6359 C.3     1  UNL1       -0.0586
     86 H           7.4062    0.6516    6.1020 H       1  UNL1        0.0235
     87 H           6.8405   -0.7623    7.0072 H       1  UNL1        0.0235
     88 H           6.3225    0.8545    7.4880 H       1  UNL1        0.0235
     89 C           4.2324   -0.7030    6.3786 C.3     1  UNL1       -0.0586
     90 H           3.3161   -0.6604    5.7939 H       1  UNL1        0.0235
     91 H           4.0275   -0.3319    7.3797 H       1  UNL1        0.0235
     92 H           4.5362   -1.7440    6.4664 H       1  UNL1        0.0235
@<TRIPOS>BOND
     1    74    72    1
     2    25    23    1
     3    73    72    1
     4    24    23    1
     5    33    30    1
     6    28    27    1
     7    72    75    1
     8    72    66    1
     9    23    22    1
    10    23    26    1
    11    27    22    2
    12    27    29    1
    13    71    68    1
    14    30    31    1
    15    30    29    1
    16    30    32    1
    17    17    15    1
    18    22    21    1
    19    67    66    1
    20    13    10    1
    21    66    68    1
    22    66    65    1
    23    29    34    1
    24    70    68    1
    25    68    69    1
    26    19    18    1
    27    21    18    1
    28    15    18    1
    29    15    16    1
    30    15    14    1
    31    34    64    1
    32    18    20    1
    33    10    12    1
    34    10    11    1
    35    10     9    1
    36    65    64   ar
    37    65    76   ar
    38    14     9    1
    39    64    82   ar
    40    77    76    1
    41     9     7    2
    42    76    78   ar
    43    84    83    1
    44     7     8    1
    45     7     2    1
    46    82    83    1
    47    82    80   ar
    48    78    80   ar
    49    78    79    1
    50    83    89    1
    51    83    85    1
    52    90    89    1
    53    57    56    1
    54    80    81    1
    55    86    85    1
    56     1     2    1
    57     1    35    1
    58     2     3    1
    59    58    56    1
    60    89    92    1
    61    89    91    1
    62    38    37    1
    63    55    54    1
    64    85    87    1
    65    85    88    1
    66    56    54    1
    67    56    59    1
    68    42    39    1
    69    40    39    1
    70     5     3    1
    71    54    53    1
    72    54    60    1
    73    35    53   ar
    74    35    36   ar
    75     3     6    1
    76     3     4    1
    77    37    39    1
    78    37    36    1
    79    37    43    1
    80    39    41    1
    81    44    43    1
    82    61    60    1
    83    53    51   ar
    84    36    47   ar
    85    46    43    1
    86    43    45    1
    87    60    62    1
    88    60    63    1
    89    51    52    1
    90    51    49   ar
    91    47    48    1
    92    47    49   ar
    93    49    50    1
