@<TRIPOS>MOLECULE
1,2,3,4
 102 104 0 0 0
SMALL
GASTEIGER

@<TRIPOS>ATOM
      1 N           1.2199    9.9613    5.8212 N.pl3   1  UNL1       -0.2371
      2 N           0.4848    8.8069    3.4795 N.pl3   1  UNL1       -0.2503
      3 N           2.8383    9.8599    2.5856 N.pl3   1  UNL1       -0.2503
      4 N           5.0517    8.5283    3.7417 N.pl3   1  UNL1       -0.2371
      5 C          -0.5401    9.8742    7.5484 C.3     1  UNL1       -0.0359
      6 H          -1.6044   10.0737    7.4499 H       1  UNL1        0.0255
      7 H          -0.0403   10.7625    7.9284 H       1  UNL1        0.0255
      8 H          -0.4202    9.0676    8.2722 H       1  UNL1        0.0255
      9 C           0.0594    9.4433    6.2250 C.3     1  UNL1        0.0968
     10 C          -0.6175    8.4504    5.5191 C.2     1  UNL1       -0.0387
     11 H          -1.4525    7.9784    6.0156 H       1  UNL1        0.0610
     12 C          -0.4275    8.1477    4.1525 C.2     1  UNL1        0.0208
     13 C          -1.3646    7.1202    3.5576 C.3     1  UNL1       -0.0253
     14 H          -2.3257    7.5681    3.3060 H       1  UNL1        0.0290
     15 H          -1.5409    6.3354    4.2891 H       1  UNL1        0.0290
     16 H          -0.9337    6.6701    2.6664 H       1  UNL1        0.0290
     17 C           3.5042   10.9513    2.9140 C.2     1  UNL1        0.0208
     18 C           3.0160   12.3444    2.5790 C.3     1  UNL1       -0.0253
     19 H           3.7548   13.0852    2.8695 H       1  UNL1        0.0290
     20 H           2.1021   12.5517    3.1332 H       1  UNL1        0.0290
     21 H           2.8156   12.4569    1.5159 H       1  UNL1        0.0290
     22 C           4.7700   10.8939    3.5261 C.2     1  UNL1       -0.0387
     23 H           5.2558   11.8435    3.6999 H       1  UNL1        0.0610
     24 C           5.5511    9.7571    3.7363 C.3     1  UNL1        0.0968
     25 C           7.0343    9.9754    3.9568 C.3     1  UNL1       -0.0359
     26 H           7.6158    9.1806    3.4953 H       1  UNL1        0.0255
     27 H           7.2473    9.9658    5.0256 H       1  UNL1        0.0255
     28 H           7.3541   10.9344    3.5574 H       1  UNL1        0.0255
     29 C           0.6251    8.8542    2.0390 C.3     1  UNL1        0.0624
     30 H           1.0148    7.8979    1.6469 H       1  UNL1        0.0537
     31 C          -0.6447    9.2098    1.2471 C.3     1  UNL1       -0.0309
     32 H          -1.4350    8.4853    1.4308 H       1  UNL1        0.0284
     33 H          -1.0079   10.1862    1.5744 H       1  UNL1        0.0284
     34 C          -0.3364    9.2334   -0.2497 C.3     1  UNL1       -0.0512
     35 H          -0.0326    8.2324   -0.5658 H       1  UNL1        0.0266
     36 H          -1.2398    9.4968   -0.8043 H       1  UNL1        0.0266
     37 C           0.7778   10.2218   -0.5808 C.3     1  UNL1       -0.0512
     38 H           0.4328   11.2381   -0.3746 H       1  UNL1        0.0266
     39 H           1.0209   10.1620   -1.6438 H       1  UNL1        0.0266
     40 C           2.0190    9.9315    0.2568 C.3     1  UNL1       -0.0309
     41 H           2.4133    8.9415    0.0182 H       1  UNL1        0.0284
     42 H           2.8031   10.6601    0.0415 H       1  UNL1        0.0284
     43 C           1.6560    9.9771    1.7473 C.3     1  UNL1        0.0624
     44 H           1.1379   10.9236    1.9495 H       1  UNL1        0.0537
     45 C           1.5833   11.2802    6.0899 C.ar    1  UNL1        0.0557
     46 C           0.7471   12.3527    5.6958 C.ar    1  UNL1       -0.0219
     47 C          -0.6472   12.1486    5.1406 C.3     1  UNL1       -0.0197
     48 H          -0.8616   11.0791    5.1015 H       1  UNL1        0.0344
     49 C          -0.7782   12.6840    3.7130 C.3     1  UNL1       -0.0586
     50 H          -1.8045   12.5696    3.3685 H       1  UNL1        0.0235
     51 H          -0.1304   12.1238    3.0447 H       1  UNL1        0.0235
     52 H          -0.5138   13.7376    3.6542 H       1  UNL1        0.0235
     53 C          -1.6895   12.8244    6.0388 C.3     1  UNL1       -0.0586
     54 H          -2.6931   12.5445    5.7246 H       1  UNL1        0.0235
     55 H          -1.6059   13.9071    5.9798 H       1  UNL1        0.0235
     56 H          -1.5583   12.5329    7.0773 H       1  UNL1        0.0235
     57 C           1.2108   13.6533    5.8209 C.ar    1  UNL1       -0.0565
     58 H           0.5766   14.4720    5.5139 H       1  UNL1        0.0621
     59 C           2.4616   13.9324    6.3333 C.ar    1  UNL1       -0.0611
     60 H           2.8015   14.9535    6.4203 H       1  UNL1        0.0618
     61 C           3.2644   12.8904    6.7562 C.ar    1  UNL1       -0.0565
     62 H           4.2255   13.1176    7.1886 H       1  UNL1        0.0621
     63 C           2.8479   11.5737    6.6481 C.ar    1  UNL1       -0.0219
     64 C           3.7016   10.4644    7.2268 C.3     1  UNL1       -0.0197
     65 H           3.5326    9.5381    6.6311 H       1  UNL1        0.0344
     66 C           3.2580   10.2003    8.6707 C.3     1  UNL1       -0.0586
     67 H           3.8466    9.3995    9.1131 H       1  UNL1        0.0235
     68 H           2.2097    9.9191    8.7085 H       1  UNL1        0.0235
     69 H           3.3932   11.1012    9.2671 H       1  UNL1        0.0235
     70 C           5.2005   10.7650    7.1994 C.3     1  UNL1       -0.0586
     71 H           5.4982   11.1213    6.2172 H       1  UNL1        0.0235
     72 H           5.7625    9.8629    7.4334 H       1  UNL1        0.0235
     73 H           5.4625   11.5149    7.9425 H       1  UNL1        0.0235
     74 C           5.9260    7.4484    3.4589 C.ar    1  UNL1        0.0557
     75 C           6.5416    6.7097    4.4771 C.ar    1  UNL1       -0.0219
     76 C           6.3296    7.0639    5.9309 C.3     1  UNL1       -0.0197
     77 H           5.7016    7.9646    5.9776 H       1  UNL1        0.0344
     78 C           7.6589    7.3613    6.6318 C.3     1  UNL1       -0.0586
     79 H           8.2264    8.1158    6.0917 H       1  UNL1        0.0235
     80 H           8.2687    6.4639    6.6983 H       1  UNL1        0.0235
     81 H           7.4792    7.7209    7.6436 H       1  UNL1        0.0235
     82 C           5.5908    5.9320    6.6446 C.3     1  UNL1       -0.0586
     83 H           4.6278    5.7616    6.1679 H       1  UNL1        0.0235
     84 H           5.4304    6.1833    7.6918 H       1  UNL1        0.0235
     85 H           6.1681    5.0113    6.6024 H       1  UNL1        0.0235
     86 C           7.3627    5.6429    4.1387 C.ar    1  UNL1       -0.0565
     87 H           7.8361    5.0634    4.9171 H       1  UNL1        0.0621
     88 C           7.5979    5.3202    2.8170 C.ar    1  UNL1       -0.0611
     89 H           8.2464    4.4934    2.5671 H       1  UNL1        0.0618
     90 C           7.0066    6.0655    1.8135 C.ar    1  UNL1       -0.0565
     91 H           7.2114    5.8142    0.7845 H       1  UNL1        0.0621
     92 C           6.1672    7.1286    2.1079 C.ar    1  UNL1       -0.0219
     93 C           5.5508    7.9528    0.9966 C.3     1  UNL1       -0.0197
     94 H           4.6580    8.4501    1.3972 H       1  UNL1        0.0344
     95 C           6.5271    9.0396    0.5312 C.3     1  UNL1       -0.0586
     96 H           6.7036    9.7656    1.3179 H       1  UNL1        0.0235
     97 H           6.1145    9.5644   -0.3282 H       1  UNL1        0.0235
     98 H           7.4791    8.5975    0.2417 H       1  UNL1        0.0235
     99 C           5.1367    7.1082   -0.2105 C.3     1  UNL1       -0.0586
    100 H           4.5765    6.2311    0.0996 H       1  UNL1        0.0235
    101 H           6.0042    6.7820   -0.7799 H       1  UNL1        0.0235
    102 H           4.5107    7.7015   -0.8746 H       1  UNL1        0.0235
@<TRIPOS>BOND
     1    39    37    1
     2   102    99    1
     3    36    34    1
     4   101    99    1
     5    37    38    1
     6    37    34    1
     7    37    40    1
     8    35    34    1
     9    97    95    1
    10    34    31    1
    11    99   100    1
    12    99    93    1
    13    41    40    1
    14    42    40    1
    15    98    95    1
    16    40    43    1
    17    95    93    1
    18    95    96    1
    19    91    90    1
    20    93    94    1
    21    93    92    1
    22    31    32    1
    23    31    33    1
    24    31    29    1
    25    21    18    1
    26    30    29    1
    27    43    44    1
    28    43    29    1
    29    43     3    1
    30    90    92   ar
    31    90    88   ar
    32    29     2    1
    33    92    74   ar
    34    89    88    1
    35    18    19    1
    36    18    17    1
    37    18    20    1
    38     3    17    1
    39    16    13    1
    40    88    86   ar
    41    17    22    2
    42    51    49    1
    43    14    13    1
    44    50    49    1
    45    74     4    1
    46    74    75   ar
    47     2    12    1
    48    26    25    1
    49    22    23    1
    50    22    24    1
    51    28    25    1
    52    13    12    1
    53    13    15    1
    54    52    49    1
    55    49    47    1
    56    24     4    1
    57    24    25    1
    58    25    27    1
    59    86    75   ar
    60    86    87    1
    61    12    10    2
    62    75    76    1
    63    48    47    1
    64    47    46    1
    65    47    53    1
    66    58    57    1
    67    10    11    1
    68    10     9    1
    69    46    57   ar
    70    46    45   ar
    71    54    53    1
    72    57    59   ar
    73     1    45    1
    74     1     9    1
    75    76    77    1
    76    76    78    1
    77    76    82    1
    78    55    53    1
    79    53    56    1
    80    45    63   ar
    81    79    78    1
    82    83    82    1
    83    71    70    1
    84     9     5    1
    85    59    60    1
    86    59    61   ar
    87    85    82    1
    88    65    64    1
    89    78    80    1
    90    78    81    1
    91    82    84    1
    92    63    61   ar
    93    63    64    1
    94    61    62    1
    95    70    64    1
    96    70    72    1
    97    70    73    1
    98    64    66    1
    99     6     5    1
   100     5     7    1
   101     5     8    1
   102    66    68    1
   103    66    67    1
   104    66    69    1
