@<TRIPOS>MOLECULE
1,2,3,4
 61 60 0 0 0
SMALL
GASTEIGER

@<TRIPOS>ATOM
      1 N           5.8568   12.3783    3.9748 N.3     1  UNL1        0.0000
      2 N           2.7376   13.2594    3.3841 N.3     1  UNL1        0.0000
      3 N           4.3209   15.8622    4.7297 N.3     1  UNL1        0.0000
      4 N           3.9792   13.4103    5.8918 N.3     1  UNL1        0.0000
      5 SI          6.9620   11.5404    2.9736 Si      1  UNL1        0.0000
      6 SI          2.1615   12.2977    2.1004 Si      1  UNL1        0.0000
      7 SI          3.1718   17.0507    4.3052 Si      1  UNL1        0.0000
      8 C           5.4594   11.6011    5.1338 C.3     1  UNL1        0.0000
      9 H           6.2786   10.9617    5.4981 H       1  UNL1        0.0000
     10 H           4.6277   10.9193    4.8774 H       1  UNL1        0.0000
     11 C           1.9344   13.3943    4.5810 C.3     1  UNL1        0.0000
     12 H           0.9522   12.9124    4.4832 H       1  UNL1        0.0000
     13 H           1.7587   14.4585    4.8135 H       1  UNL1        0.0000
     14 C           4.7179   15.7217    6.1120 C.3     1  UNL1        0.0000
     15 H           4.5616   16.6401    6.6962 H       1  UNL1        0.0000
     16 H           5.7905   15.4710    6.1887 H       1  UNL1        0.0000
     17 C           5.0442   12.5016    6.3037 C.3     1  UNL1        0.0000
     18 H           4.7356   11.8858    7.1674 H       1  UNL1        0.0000
     19 H           5.9159   13.0968    6.6009 H       1  UNL1        0.0000
     20 C           2.6810   12.7455    5.7580 C.3     1  UNL1        0.0000
     21 H           2.1016   12.8040    6.6927 H       1  UNL1        0.0000
     22 H           2.8321   11.6918    5.5117 H       1  UNL1        0.0000
     23 C           3.8962   14.5900    6.7553 C.3     1  UNL1        0.0000
     24 H           4.2369   14.3664    7.7782 H       1  UNL1        0.0000
     25 H           2.8591   14.9296    6.8024 H       1  UNL1        0.0000
     26 C           6.4062    9.7392    2.5676 C.3     1  UNL1        0.0000
     27 H           6.4652    9.1119    3.4527 H       1  UNL1        0.0000
     28 H           7.0367    9.2863    1.8089 H       1  UNL1        0.0000
     29 H           5.3823    9.7002    2.2102 H       1  UNL1        0.0000
     30 C           8.6824   11.2711    3.8270 C.3     1  UNL1        0.0000
     31 H           9.4645   11.8801    3.3837 H       1  UNL1        0.0000
     32 H           9.0019   10.2371    3.7424 H       1  UNL1        0.0000
     33 H           8.6463   11.5110    4.8866 H       1  UNL1        0.0000
     34 C           7.2292   12.4689    1.3279 C.3     1  UNL1        0.0000
     35 H           6.7857   13.4612    1.3505 H       1  UNL1        0.0000
     36 H           6.7938   11.9259    0.4969 H       1  UNL1        0.0000
     37 H           8.2880   12.5736    1.1159 H       1  UNL1        0.0000
     38 C           0.8597   13.1775    0.9854 C.3     1  UNL1        0.0000
     39 H           1.2625   14.0982    0.5708 H       1  UNL1        0.0000
     40 H          -0.0345   13.4372    1.5450 H       1  UNL1        0.0000
     41 H           0.5524   12.5492    0.1554 H       1  UNL1        0.0000
     42 C           1.3262   10.6593    2.6777 C.3     1  UNL1        0.0000
     43 H           0.4610   10.8549    3.3037 H       1  UNL1        0.0000
     44 H           2.0123   10.0415    3.2502 H       1  UNL1        0.0000
     45 H           0.9838   10.0719    1.8325 H       1  UNL1        0.0000
     46 C           3.6824   11.8337    1.0450 C.3     1  UNL1        0.0000
     47 H           3.6856   12.3671    0.1001 H       1  UNL1        0.0000
     48 H           3.7052   10.7740    0.8137 H       1  UNL1        0.0000
     49 H           4.5895   12.0939    1.5912 H       1  UNL1        0.0000
     50 C           2.0644   16.4571    2.8635 C.3     1  UNL1        0.0000
     51 H           2.2913   17.0000    1.9519 H       1  UNL1        0.0000
     52 H           1.0134   16.6275    3.0772 H       1  UNL1        0.0000
     53 H           2.2035   15.3924    2.6683 H       1  UNL1        0.0000
     54 C           3.9727   18.7332    3.8128 C.3     1  UNL1        0.0000
     55 H           4.7156   18.6043    3.0328 H       1  UNL1        0.0000
     56 H           4.4654   19.2095    4.6556 H       1  UNL1        0.0000
     57 H           3.2232   19.4238    3.4398 H       1  UNL1        0.0000
     58 C           1.9694   17.5329    5.7379 C.3     1  UNL1        0.0000
     59 H           1.2869   16.7281    5.9969 H       1  UNL1        0.0000
     60 H           1.3657   18.3901    5.4598 H       1  UNL1        0.0000
     61 H           2.5123   17.8043    6.6382 H       1  UNL1        0.0000
@<TRIPOS>BOND
     1    47    46    1
     2    41    38    1
     3    36    34    1
     4    39    38    1
     5    48    46    1
     6    38    40    1
     7    38     6    1
     8    46    49    1
     9    46     6    1
    10    37    34    1
    11    34    35    1
    12    34     5    1
    13    28    26    1
    14    45    42    1
    15    51    50    1
    16     6    42    1
    17     6     2    1
    18    29    26    1
    19    26     5    1
    20    26    27    1
    21    53    50    1
    22    42    44    1
    23    42    43    1
    24    50    52    1
    25    50     7    1
    26     5    30    1
    27     5     1    1
    28    55    54    1
    29    31    30    1
    30     2    11    1
    31    57    54    1
    32    32    30    1
    33    54     7    1
    34    54    56    1
    35    30    33    1
    36     1     8    1
    37     7     3    1
    38     7    58    1
    39    12    11    1
    40    11    13    1
    41    11    20    1
    42     3    14    1
    43    10     8    1
    44     8     9    1
    45     8    17    1
    46    60    58    1
    47    22    20    1
    48    58    59    1
    49    58    61    1
    50    20     4    1
    51    20    21    1
    52     4    17    1
    53     4    23    1
    54    14    16    1
    55    14    15    1
    56    14    23    1
    57    17    19    1
    58    17    18    1
    59    23    25    1
    60    23    24    1
