@<TRIPOS>MOLECULE
1,21,41,61
 61 60 0 0 0
SMALL
GASTEIGER

@<TRIPOS>ATOM
      1 N           3.8651    4.2896    0.2188 N.3     1  UNL1        0.0000
      2 SI          2.4185    3.8700    1.0979 Si      1  UNL1        0.0000
      3 C           2.6631    2.1122    1.8130 C.3     1  UNL1        0.0000
      4 H           3.6195    1.7022    1.4944 H       1  UNL1        0.0000
      5 H           1.8749    1.4290    1.5112 H       1  UNL1        0.0000
      6 H           2.6749    2.1484    2.8962 H       1  UNL1        0.0000
      7 C           1.9692    5.1547    2.4395 C.3     1  UNL1        0.0000
      8 H           1.8172    6.1474    2.0252 H       1  UNL1        0.0000
      9 H           2.7529    5.2154    3.1865 H       1  UNL1        0.0000
     10 H           1.0515    4.8627    2.9402 H       1  UNL1        0.0000
     11 C           0.9373    3.8027   -0.1169 C.3     1  UNL1        0.0000
     12 H           1.0611    3.0408   -0.8801 H       1  UNL1        0.0000
     13 H           0.7788    4.7520   -0.6170 H       1  UNL1        0.0000
     14 H           0.0312    3.5680    0.4299 H       1  UNL1        0.0000
     15 C           3.7375    4.7213   -1.1505 C.3     1  UNL1        0.0000
     16 H           3.2462    5.7032   -1.2087 H       1  UNL1        0.0000
     17 H           3.1124    4.0239   -1.7261 H       1  UNL1        0.0000
     18 C           5.1323    4.8209   -1.7774 C.3     1  UNL1        0.0000
     19 H           5.0974    4.6829   -2.8685 H       1  UNL1        0.0000
     20 H           5.5480    5.8056   -1.5580 H       1  UNL1        0.0000
     21 N           6.8755    5.2867    0.7695 N.3     1  UNL1        0.0000
     22 SI          6.8876    6.6475    1.8602 Si      1  UNL1        0.0000
     23 C           7.8639    8.0899    1.0599 C.3     1  UNL1        0.0000
     24 H           8.8898    7.8140    0.8414 H       1  UNL1        0.0000
     25 H           7.8918    8.9311    1.7431 H       1  UNL1        0.0000
     26 H           7.4087    8.4373    0.1377 H       1  UNL1        0.0000
     27 C           7.7487    6.2545    3.5205 C.3     1  UNL1        0.0000
     28 H           8.7790    5.9374    3.3855 H       1  UNL1        0.0000
     29 H           7.2184    5.4689    4.0475 H       1  UNL1        0.0000
     30 H           7.7556    7.1364    4.1532 H       1  UNL1        0.0000
     31 C           5.0789    7.2273    2.0880 C.3     1  UNL1        0.0000
     32 H           4.4134    6.6597    1.4407 H       1  UNL1        0.0000
     33 H           4.9528    8.2846    1.8741 H       1  UNL1        0.0000
     34 H           4.7578    7.0535    3.1084 H       1  UNL1        0.0000
     35 C           7.7355    5.3239   -0.3866 C.3     1  UNL1        0.0000
     36 H           8.7930    5.2632   -0.0915 H       1  UNL1        0.0000
     37 H           7.6172    6.2697   -0.9342 H       1  UNL1        0.0000
     38 C           7.4015    4.1394   -1.2999 C.3     1  UNL1        0.0000
     39 H           7.6517    4.3538   -2.3498 H       1  UNL1        0.0000
     40 H           7.9708    3.2685   -0.9709 H       1  UNL1        0.0000
     41 N           6.2003    2.1343    0.7690 N.3     1  UNL1        0.0000
     42 SI          6.9887    1.3329    2.1024 Si      1  UNL1        0.0000
     43 C           8.0051   -0.1501    1.4380 C.3     1  UNL1        0.0000
     44 H           8.7931    0.1583    0.7581 H       1  UNL1        0.0000
     45 H           7.3813   -0.8702    0.9196 H       1  UNL1        0.0000
     46 H           8.4770   -0.6657    2.2666 H       1  UNL1        0.0000
     47 C           8.2169    2.5753    2.8825 C.3     1  UNL1        0.0000
     48 H           8.2234    3.5071    2.3201 H       1  UNL1        0.0000
     49 H           9.2301    2.1866    2.9218 H       1  UNL1        0.0000
     50 H           7.9130    2.8144    3.8952 H       1  UNL1        0.0000
     51 C           5.7499    0.6235    3.3730 C.3     1  UNL1        0.0000
     52 H           5.0667   -0.0934    2.9262 H       1  UNL1        0.0000
     53 H           5.1630    1.4194    3.8181 H       1  UNL1        0.0000
     54 H           6.2847    0.1164    4.1699 H       1  UNL1        0.0000
     55 C           6.2204    1.4989   -0.5247 C.3     1  UNL1        0.0000
     56 H           5.6052    0.5875   -0.5243 H       1  UNL1        0.0000
     57 H           7.2399    1.1883   -0.7944 H       1  UNL1        0.0000
     58 C           5.6711    2.4738   -1.5718 C.3     1  UNL1        0.0000
     59 H           6.0765    2.2641   -2.5730 H       1  UNL1        0.0000
     60 H           4.5843    2.3820   -1.6036 H       1  UNL1        0.0000
     61 N           5.9870    3.8286   -1.1383 N.3     1  UNL1        0.0000
@<TRIPOS>BOND
     1    19    18    1
     2    59    58    1
     3    39    38    1
     4    18    20    1
     5    18    15    1
     6    18    61    1
     7    17    15    1
     8    60    58    1
     9    58    61    1
    10    58    55    1
    11    38    61    1
    12    38    40    1
    13    38    35    1
    14    16    15    1
    15    15     1    1
    16    37    35    1
    17    12    11    1
    18    57    55    1
    19    13    11    1
    20    55    56    1
    21    55    41    1
    22    35    36    1
    23    35    21    1
    24    11    14    1
    25    11     2    1
    26    26    23    1
    27     1     2    1
    28    44    43    1
    29    41    42    1
    30    21    22    1
    31    24    23    1
    32    45    43    1
    33    23    25    1
    34    23    22    1
    35     2     3    1
    36     2     7    1
    37    43    42    1
    38    43    46    1
    39    32    31    1
    40     4     3    1
    41     5     3    1
    42     3     6    1
    43    22    31    1
    44    22    27    1
    45    33    31    1
    46     8     7    1
    47    31    34    1
    48    42    47    1
    49    42    51    1
    50    48    47    1
    51     7    10    1
    52     7     9    1
    53    47    49    1
    54    47    50    1
    55    52    51    1
    56    51    53    1
    57    51    54    1
    58    28    27    1
    59    27    29    1
    60    27    30    1
