@<TRIPOS>MOLECULE
1,2,3,4
 92 94 0 0 0
SMALL
GASTEIGER

@<TRIPOS>ATOM
      1 N           7.9915    1.0530   18.0884 N.3     1  UNL1        0.0000
      2 N          10.0489    2.1397   17.3901 N.3     1  UNL1        0.0000
      3 N           9.4987    4.8363   18.4358 N.pl3   1  UNL1        0.0000
      4 N           6.7942    3.3741   18.9028 N.pl3   1  UNL1        0.0000
      5 SI          9.8558    5.9738   19.6769 Si      1  UNL1        0.0000
      6 SI          5.8570    4.5910   18.1532 Si      1  UNL1        0.0000
      7 C           9.0775    0.0925   18.2190 C.3     1  UNL1        0.0000
      8 C          10.3955    0.8390   17.9440 C.3     1  UNL1        0.0000
      9 C           7.8663    1.4021   16.6805 C.3     1  UNL1        0.0000
     10 C           9.2345    1.9132   16.2026 C.3     1  UNL1        0.0000
     11 C          11.2233    2.9738   17.1284 C.3     1  UNL1        0.0000
     12 C          10.7871    4.2480   16.4631 C.ar    1  UNL1        0.0000
     13 C          11.1937    4.5620   15.1785 C.ar    1  UNL1        0.0000
     14 C          10.7583    5.7083   14.5378 C.ar    1  UNL1        0.0000
     15 C           9.8728    6.5698   15.1800 C.ar    1  UNL1        0.0000
     16 C           9.4678    6.2511   16.4660 C.ar    1  UNL1        0.0000
     17 C           9.8967    5.1025   17.1505 C.ar    1  UNL1        0.0000
     18 C           9.3445    7.8399   14.5275 C.3     1  UNL1        0.0000
     19 C           9.8552    8.0248   13.0954 C.3     1  UNL1        0.0000
     20 C           7.8113    7.7897   14.4830 C.3     1  UNL1        0.0000
     21 C           9.7970    9.0498   15.3561 C.3     1  UNL1        0.0000
     22 C           6.7263    0.5736   18.6610 C.3     1  UNL1        0.0000
     23 C           6.3762    1.2512   19.9610 C.ar    1  UNL1        0.0000
     24 C           5.9511    0.5334   21.0620 C.ar    1  UNL1        0.0000
     25 C           5.4630    1.1667   22.1952 C.ar    1  UNL1        0.0000
     26 C           5.3621    2.5534   22.2347 C.ar    1  UNL1        0.0000
     27 C           5.8018    3.2724   21.1313 C.ar    1  UNL1        0.0000
     28 C           6.3461    2.6637   19.9961 C.ar    1  UNL1        0.0000
     29 C           4.7795    3.3084   23.4212 C.3     1  UNL1        0.0000
     30 C           4.3465    2.3791   24.5586 C.3     1  UNL1        0.0000
     31 C           3.5467    4.0921   22.9485 C.3     1  UNL1        0.0000
     32 C           5.8313    4.2796   23.9739 C.3     1  UNL1        0.0000
     33 C           8.6201    5.6718   21.0978 C.3     1  UNL1        0.0000
     34 C          11.6964    5.7402   20.2085 C.3     1  UNL1        0.0000
     35 C           9.8043    7.8527   19.2590 C.3     1  UNL1        0.0000
     36 C           4.0056    4.0845   18.2323 C.3     1  UNL1        0.0000
     37 C           6.3285    4.6626   16.2926 C.3     1  UNL1        0.0000
     38 C           5.9432    6.4041   18.7846 C.3     1  UNL1        0.0000
     39 H           9.0723   -0.3072   19.2320 H       1  UNL1        0.0000
     40 H           8.9415   -0.7425   17.5062 H       1  UNL1        0.0000
     41 H          10.9411    1.0056   18.8774 H       1  UNL1        0.0000
     42 H          11.0324    0.2706   17.2396 H       1  UNL1        0.0000
     43 H           7.1087    2.1855   16.5901 H       1  UNL1        0.0000
     44 H           7.5494    0.5276   16.0811 H       1  UNL1        0.0000
     45 H           9.7261    1.1804   15.5365 H       1  UNL1        0.0000
     46 H           9.1248    2.8470   15.6428 H       1  UNL1        0.0000
     47 H          11.6887    3.1926   18.1008 H       1  UNL1        0.0000
     48 H          11.9457    2.4375   16.4872 H       1  UNL1        0.0000
     49 H          11.8796    3.8983   14.6661 H       1  UNL1        0.0000
     50 H          11.1148    5.9088   13.5419 H       1  UNL1        0.0000
     51 H           8.7744    6.8885   16.9894 H       1  UNL1        0.0000
     52 H           9.4373    8.9383   12.6763 H       1  UNL1        0.0000
     53 H          10.9390    8.1119   13.0745 H       1  UNL1        0.0000
     54 H           9.5518    7.1947   12.4613 H       1  UNL1        0.0000
     55 H           7.4202    8.6858   14.0045 H       1  UNL1        0.0000
     56 H           7.3906    7.7249   15.4822 H       1  UNL1        0.0000
     57 H           7.4795    6.9225   13.9153 H       1  UNL1        0.0000
     58 H           9.4542    9.9730   14.8926 H       1  UNL1        0.0000
     59 H           9.3984    9.0047   16.3651 H       1  UNL1        0.0000
     60 H          10.8832    9.0773   15.4187 H       1  UNL1        0.0000
     61 H           6.7527   -0.5168   18.7945 H       1  UNL1        0.0000
     62 H           5.9178    0.7981   17.9513 H       1  UNL1        0.0000
     63 H           5.9735   -0.5492   21.0332 H       1  UNL1        0.0000
     64 H           5.1480    0.5599   23.0271 H       1  UNL1        0.0000
     65 H           5.7396    4.3504   21.1194 H       1  UNL1        0.0000
     66 H           3.9450    2.9715   25.3787 H       1  UNL1        0.0000
     67 H           5.1911    1.8088   24.9375 H       1  UNL1        0.0000
     68 H           3.5710    1.6917   24.2290 H       1  UNL1        0.0000
     69 H           3.0966    4.6261   23.7831 H       1  UNL1        0.0000
     70 H           2.8055    3.4117   22.5336 H       1  UNL1        0.0000
     71 H           3.8111    4.8152   22.1823 H       1  UNL1        0.0000
     72 H           5.4154    4.8491   24.8030 H       1  UNL1        0.0000
     73 H           6.6982    3.7292   24.3315 H       1  UNL1        0.0000
     74 H           6.1665    4.9757   23.2112 H       1  UNL1        0.0000
     75 H           9.1059    5.7706   22.0628 H       1  UNL1        0.0000
     76 H           8.2228    4.6605   20.9979 H       1  UNL1        0.0000
     77 H           7.7972    6.3787   21.0821 H       1  UNL1        0.0000
     78 H          11.8832    6.1086   21.2122 H       1  UNL1        0.0000
     79 H          11.9742    4.6910   20.1772 H       1  UNL1        0.0000
     80 H          12.3610    6.2771   19.5367 H       1  UNL1        0.0000
     81 H          10.1516    8.4290   20.1112 H       1  UNL1        0.0000
     82 H          10.4592    8.0822   18.4246 H       1  UNL1        0.0000
     83 H           8.8101    8.2140   19.0138 H       1  UNL1        0.0000
     84 H           3.3632    4.8474   17.8060 H       1  UNL1        0.0000
     85 H           3.6951    3.9247   19.2597 H       1  UNL1        0.0000
     86 H           3.8186    3.1596   17.6941 H       1  UNL1        0.0000
     87 H           5.9291    5.5706   15.8540 H       1  UNL1        0.0000
     88 H           7.4052    4.6869   16.1455 H       1  UNL1        0.0000
     89 H           5.9189    3.8342   15.7194 H       1  UNL1        0.0000
     90 H           5.3835    7.0677   18.1306 H       1  UNL1        0.0000
     91 H           5.5300    6.5126   19.7837 H       1  UNL1        0.0000
     92 H           6.9706    6.7523   18.8141 H       1  UNL1        0.0000
@<TRIPOS>BOND
     1    54    19    1
     2    52    19    1
     3    53    19    1
     4    19    18    1
     5    50    14    1
     6    57    20    1
     7    55    20    1
     8    20    18    1
     9    20    56    1
    10    18    15    1
    11    18    21    1
    12    14    13   ar
    13    14    15   ar
    14    49    13    1
    15    58    21    1
    16    13    12   ar
    17    15    16   ar
    18    21    60    1
    19    21    59    1
    20    45    10    1
    21    46    10    1
    22    89    37    1
    23    87    37    1
    24    44     9    1
    25    88    37    1
    26    10     9    1
    27    10     2    1
    28    37     6    1
    29    12    11    1
    30    12    17   ar
    31    16    51    1
    32    16    17   ar
    33    48    11    1
    34    43     9    1
    35     9     1    1
    36    11     2    1
    37    11    47    1
    38    17     3    1
    39    42     8    1
    40     2     8    1
    41    40     7    1
    42    86    36    1
    43    84    36    1
    44     8     7    1
    45     8    41    1
    46    62    22    1
    47     1     7    1
    48     1    22    1
    49    90    38    1
    50     6    36    1
    51     6    38    1
    52     6     4    1
    53     7    39    1
    54    36    85    1
    55    82    35    1
    56     3     5    1
    57    22    61    1
    58    22    23    1
    59    38    92    1
    60    38    91    1
    61     4    28    1
    62    83    35    1
    63    35     5    1
    64    35    81    1
    65    80    34    1
    66     5    34    1
    67     5    33    1
    68    23    28   ar
    69    23    24   ar
    70    28    27   ar
    71    79    34    1
    72    34    78    1
    73    76    33    1
    74    63    24    1
    75    24    25   ar
    76    77    33    1
    77    33    75    1
    78    65    27    1
    79    27    26   ar
    80    71    31    1
    81    25    26   ar
    82    25    64    1
    83    26    29    1
    84    70    31    1
    85    31    29    1
    86    31    69    1
    87    74    32    1
    88    29    32    1
    89    29    30    1
    90    32    73    1
    91    32    72    1
    92    68    30    1
    93    30    67    1
    94    30    66    1
