@<TRIPOS>MOLECULE
1,2,3,4
 112 120 0 0 0
SMALL
GASTEIGER

@<TRIPOS>ATOM
      1 N          16.4956   11.0747    2.8749 N.ar    1  UNL1       -0.2465
      2 N          14.5116   10.1358    4.6763 N.2     1  UNL1       -0.2465
      3 N          12.9302   12.4188    4.1032 N.ar    1  UNL1       -0.2465
      4 N          14.9974   13.4415    2.4450 N.2     1  UNL1       -0.2465
      5 C          17.2450   11.6058    1.8632 C.ar    1  UNL1        0.0743
      6 C          18.2522   10.6670    1.4548 C.ar    1  UNL1       -0.0336
      7 H          18.9537   10.8326    0.6602 H       1  UNL1        0.0640
      8 C          18.1152    9.5773    2.2433 C.ar    1  UNL1       -0.0336
      9 H          18.6787    8.6648    2.2236 H       1  UNL1        0.0640
     10 C          17.0193    9.8401    3.1320 C.ar    1  UNL1        0.0743
     11 C          16.5608    8.9269    4.0762 C.2     1  UNL1        0.0334
     12 C          15.4036    9.1142    4.8267 C.2     1  UNL1        0.0743
     13 C          14.8974    8.1584    5.7699 C.2     1  UNL1       -0.0336
     14 H          15.4241    7.2797    6.0884 H       1  UNL1        0.0640
     15 C          13.6679    8.5866    6.1412 C.2     1  UNL1       -0.0336
     16 H          12.9750    8.1265    6.8196 H       1  UNL1        0.0640
     17 C          13.4277    9.8164    5.4421 C.2     1  UNL1        0.0743
     18 C          12.2207   10.5080    5.4801 C.2     1  UNL1        0.0334
     19 C          12.0116   11.7227    4.8350 C.ar    1  UNL1        0.0743
     20 C          10.7731   12.4458    4.8783 C.ar    1  UNL1       -0.0336
     21 H           9.8871   12.1060    5.3795 H       1  UNL1        0.0640
     22 C          10.9642   13.5935    4.1866 C.ar    1  UNL1       -0.0336
     23 H          10.2651   14.3861    4.0006 H       1  UNL1        0.0640
     24 C          12.3171   13.5715    3.7077 C.ar    1  UNL1        0.0743
     25 C          12.8852   14.5867    2.9442 C.2     1  UNL1        0.0334
     26 C          14.1613   14.5191    2.3960 C.2     1  UNL1        0.0743
     27 C          14.7343   15.5445    1.5721 C.2     1  UNL1       -0.0336
     28 H          14.2836   16.5008    1.3886 H       1  UNL1        0.0640
     29 C          15.9033   15.0569    1.0959 C.2     1  UNL1       -0.0336
     30 H          16.6108   15.5334    0.4448 H       1  UNL1        0.0640
     31 C          16.0519   13.7343    1.6318 C.2     1  UNL1        0.0743
     32 C          17.0848   12.8638    1.2894 C.2     1  UNL1        0.0334
     33 C          18.0009   13.2572    0.1893 C.ar    1  UNL1       -0.0080
     34 C          17.5083   13.2426   -1.1209 C.ar    1  UNL1       -0.0421
     35 C          18.3399   13.6105   -2.1653 C.ar    1  UNL1       -0.0553
     36 H          17.9566   13.5977   -3.1762 H       1  UNL1        0.0623
     37 C          19.6566   13.9906   -1.9438 C.ar    1  UNL1       -0.0499
     38 C          20.1345   13.9774   -0.6441 C.ar    1  UNL1       -0.0553
     39 H          21.1617   14.2569   -0.4543 H       1  UNL1        0.0623
     40 C          19.3300   13.6101    0.4269 C.ar    1  UNL1       -0.0421
     41 C          16.0964   12.8200   -1.4026 C.3     1  UNL1       -0.0391
     42 H          15.8353   11.9362   -0.8232 H       1  UNL1        0.0278
     43 H          15.9679   12.5994   -2.4597 H       1  UNL1        0.0278
     44 H          15.3994   13.6128   -1.1305 H       1  UNL1        0.0278
     45 C          20.5388   14.3745   -3.0930 C.3     1  UNL1       -0.0397
     46 H          21.4437   14.8651   -2.7428 H       1  UNL1        0.0278
     47 H          20.0150   15.0448   -3.7721 H       1  UNL1        0.0278
     48 H          20.8270   13.4871   -3.6573 H       1  UNL1        0.0278
     49 C          19.9089   13.6272    1.8108 C.3     1  UNL1       -0.0391
     50 H          19.4938   12.8341    2.4273 H       1  UNL1        0.0278
     51 H          19.6945   14.5796    2.2941 H       1  UNL1        0.0278
     52 H          20.9896   13.5084    1.7697 H       1  UNL1        0.0278
     53 C          12.0402   15.7620    2.6119 C.ar    1  UNL1       -0.0080
     54 C          11.3519   15.7874    1.3985 C.ar    1  UNL1       -0.0421
     55 C          10.5581   16.8837    1.0938 C.ar    1  UNL1       -0.0553
     56 H          10.0240   16.9020    0.1539 H       1  UNL1        0.0623
     57 C          10.4352   17.9520    1.9684 C.ar    1  UNL1       -0.0499
     58 C          11.1252   17.9067    3.1726 C.ar    1  UNL1       -0.0553
     59 H          11.0358   18.7332    3.8639 H       1  UNL1        0.0623
     60 C          11.9239   16.8255    3.5073 C.ar    1  UNL1       -0.0421
     61 C          11.4696   14.6398    0.4405 C.3     1  UNL1       -0.0391
     62 H          11.2409   13.6999    0.9413 H       1  UNL1        0.0278
     63 H          12.4873   14.5697    0.0566 H       1  UNL1        0.0278
     64 H          10.7899   14.7658   -0.3986 H       1  UNL1        0.0278
     65 C           9.5790   19.1366    1.6352 C.3     1  UNL1       -0.0397
     66 H           9.0919   19.0074    0.6720 H       1  UNL1        0.0278
     67 H          10.1830   20.0427    1.6001 H       1  UNL1        0.0278
     68 H           8.8128   19.2779    2.3966 H       1  UNL1        0.0278
     69 C          12.6590   16.7828    4.8110 C.3     1  UNL1       -0.0391
     70 H          13.7163   16.5854    4.6418 H       1  UNL1        0.0278
     71 H          12.2690   15.9801    5.4368 H       1  UNL1        0.0278
     72 H          12.5536   17.7230    5.3467 H       1  UNL1        0.0278
     73 C          11.0619    9.8491    6.1382 C.ar    1  UNL1       -0.0080
     74 C          10.2870    8.9734    5.3716 C.ar    1  UNL1       -0.0421
     75 C           9.2003    8.3431    5.9543 C.ar    1  UNL1       -0.0553
     76 H           8.5994    7.6672    5.3617 H       1  UNL1        0.0623
     77 C           8.8647    8.5604    7.2841 C.ar    1  UNL1       -0.0499
     78 C           9.6452    9.4297    8.0287 C.ar    1  UNL1       -0.0553
     79 H           9.3981    9.6096    9.0659 H       1  UNL1        0.0623
     80 C          10.7400   10.0785    7.4742 C.ar    1  UNL1       -0.0421
     81 C          10.6317    8.7267    3.9333 C.3     1  UNL1       -0.0391
     82 H          10.6036    9.6592    3.3701 H       1  UNL1        0.0278
     83 H           9.9326    8.0259    3.4837 H       1  UNL1        0.0278
     84 H          11.6390    8.3201    3.8467 H       1  UNL1        0.0278
     85 C           7.6872    7.8575    7.8895 C.3     1  UNL1       -0.0397
     86 H           7.4946    8.2163    8.8974 H       1  UNL1        0.0278
     87 H           7.8709    6.7841    7.9341 H       1  UNL1        0.0278
     88 H           6.7956    8.0168    7.2849 H       1  UNL1        0.0278
     89 C          11.5661   11.0127    8.3051 C.3     1  UNL1       -0.0391
     90 H          11.5794   12.0063    7.8596 H       1  UNL1        0.0278
     91 H          12.5945   10.6570    8.3668 H       1  UNL1        0.0278
     92 H          11.1664   11.0881    9.3133 H       1  UNL1        0.0278
     93 C          17.2719    7.6293    4.1940 C.ar    1  UNL1       -0.0080
     94 C          16.6927    6.4808    3.6431 C.ar    1  UNL1       -0.0421
     95 C          17.3527    5.2687    3.7583 C.ar    1  UNL1       -0.0553
     96 H          16.9055    4.3808    3.3330 H       1  UNL1        0.0623
     97 C          18.5784    5.1670    4.4038 C.ar    1  UNL1       -0.0499
     98 C          19.1471    6.3181    4.9227 C.ar    1  UNL1       -0.0553
     99 H          20.1072    6.2633    5.4169 H       1  UNL1        0.0623
    100 C          18.5142    7.5499    4.8210 C.ar    1  UNL1       -0.0421
    101 C          15.3803    6.5535    2.9192 C.3     1  UNL1       -0.0391
    102 H          15.3352    7.4416    2.2913 H       1  UNL1        0.0278
    103 H          14.5545    6.6060    3.6292 H       1  UNL1        0.0278
    104 H          15.2393    5.6731    2.2964 H       1  UNL1        0.0278
    105 C          19.2673    3.8399    4.5105 C.3     1  UNL1       -0.0397
    106 H          20.1551    3.9110    5.1336 H       1  UNL1        0.0278
    107 H          19.5659    3.4896    3.5225 H       1  UNL1        0.0278
    108 H          18.5977    3.0952    4.9383 H       1  UNL1        0.0278
    109 C          19.1831    8.7764    5.3617 C.3     1  UNL1       -0.0391
    110 H          18.4552    9.5476    5.5945 H       1  UNL1        0.0278
    111 H          19.8752    9.1804    4.6219 H       1  UNL1        0.0278
    112 H          19.7516    8.5410    6.2585 H       1  UNL1        0.0278
@<TRIPOS>BOND
     1    47    45    1
     2    48    45    1
     3    36    35    1
     4    45    46    1
     5    45    37    1
     6    43    41    1
     7    35    37   ar
     8    35    34   ar
     9    37    38   ar
    10    41    44    1
    11    41    34    1
    12    41    42    1
    13    34    33   ar
    14    38    39    1
    15    38    40   ar
    16    64    61    1
    17    63    61    1
    18    56    55    1
    19    33    40   ar
    20    33    32    1
    21    40    49    1
    22    61    62    1
    23    61    54    1
    24    30    29    1
    25     7     6    1
    26    66    65    1
    27    55    54   ar
    28    55    57   ar
    29    29    27    2
    30    29    31    1
    31    32    31    1
    32    32     5    2
    33    28    27    1
    34    54    53   ar
    35     6     5   ar
    36     6     8   ar
    37    27    26    1
    38    67    65    1
    39    31     4    2
    40    65    57    1
    41    65    68    1
    42    52    49    1
    43    49    51    1
    44    49    50    1
    45     5     1   ar
    46    57    58   ar
    47     9     8    1
    48     8    10   ar
    49   102   101    1
    50   104   101    1
    51    26     4    1
    52    26    25    2
    53    53    25    1
    54    53    60   ar
    55     1    10   ar
    56   101   103    1
    57   101    94    1
    58    25    24    1
    59    10    11    2
    60    58    60   ar
    61    58    59    1
    62    96    95    1
    63    82    81    1
    64    83    81    1
    65    60    69    1
    66   107   105    1
    67    94    95   ar
    68    94    93   ar
    69    24     3   ar
    70    24    22   ar
    71    95    97   ar
    72    84    81    1
    73    81    74    1
    74    23    22    1
    75    11    93    1
    76    11    12    1
    77     3    19   ar
    78    22    20   ar
    79    93   100   ar
    80    97   105    1
    81    97    98   ar
    82   105   108    1
    83   105   106    1
    84   111   109    1
    85    70    69    1
    86     2    12    2
    87     2    17    1
    88    69    72    1
    89    69    71    1
    90   100    98   ar
    91   100   109    1
    92    12    13    1
    93    19    20   ar
    94    19    18    1
    95    20    21    1
    96    98    99    1
    97   109   110    1
    98   109   112    1
    99    76    75    1
   100    74    75   ar
   101    74    73   ar
   102    17    18    2
   103    17    15    1
   104    18    73    1
   105    13    14    1
   106    13    15    2
   107    75    77   ar
   108    73    80   ar
   109    15    16    1
   110    77    85    1
   111    77    78   ar
   112    88    85    1
   113    80    78   ar
   114    80    89    1
   115    90    89    1
   116    85    87    1
   117    85    86    1
   118    78    79    1
   119    89    91    1
   120    89    92    1
