@<TRIPOS>MOLECULE
1,2,3,4
 112 120 0 0 0
SMALL
GASTEIGER

@<TRIPOS>ATOM
      1 N           8.5764   29.9008   -4.3967 N.ar    1  UNL1       -0.2465
      2 N           7.0713   29.5892   -2.0102 N.2     1  UNL1       -0.2465
      3 N           6.3087   26.9771   -2.8332 N.ar    1  UNL1       -0.2465
      4 N           7.8321   27.2815   -5.2092 N.2     1  UNL1       -0.2465
      5 C           9.2392   29.8709   -5.5892 C.ar    1  UNL1        0.0743
      6 C           9.8867   31.1302   -5.8225 C.ar    1  UNL1       -0.0336
      7 H          10.4695   31.3632   -6.6930 H       1  UNL1        0.0640
      8 C           9.6052   31.9184   -4.7594 C.ar    1  UNL1       -0.0336
      9 H           9.9082   32.9319   -4.5789 H       1  UNL1        0.0640
     10 C           8.7931   31.1399   -3.8683 C.ar    1  UNL1        0.0743
     11 C           8.3029   31.6163   -2.6570 C.2     1  UNL1        0.0334
     12 C           7.5117   30.8636   -1.7961 C.2     1  UNL1        0.0743
     13 C           6.9803   31.3654   -0.5603 C.2     1  UNL1       -0.0336
     14 H           7.1839   32.3410   -0.1619 H       1  UNL1        0.0640
     15 C           6.2005   30.3879   -0.0442 C.2     1  UNL1       -0.0336
     16 H           5.6329   30.3942    0.8664 H       1  UNL1        0.0640
     17 C           6.2559   29.2843   -0.9598 C.2     1  UNL1        0.0743
     18 C           5.5164   28.1172   -0.8034 C.2     1  UNL1        0.0334
     19 C           5.5689   27.0462   -1.6885 C.ar    1  UNL1        0.0743
     20 C           4.7784   25.8568   -1.5416 C.ar    1  UNL1       -0.0336
     21 H           4.1075   25.6686   -0.7257 H       1  UNL1        0.0640
     22 C           5.0462   25.0733   -2.6111 C.ar    1  UNL1       -0.0336
     23 H           4.6408   24.1098   -2.8538 H       1  UNL1        0.0640
     24 C           5.9963   25.7840   -3.4190 C.ar    1  UNL1        0.0743
     25 C           6.4577   25.3223   -4.6467 C.2     1  UNL1        0.0334
     26 C           7.3329   26.0363   -5.4580 C.2     1  UNL1        0.0743
     27 C           7.8102   25.5597   -6.7245 C.2     1  UNL1       -0.0336
     28 H           7.5590   24.6074   -7.1506 H       1  UNL1        0.0640
     29 C           8.6042   26.5295   -7.2344 C.2     1  UNL1       -0.0336
     30 H           9.1375   26.5373   -8.1655 H       1  UNL1        0.0640
     31 C           8.6085   27.6048   -6.2837 C.2     1  UNL1        0.0743
     32 C           9.2772   28.8076   -6.4838 C.2     1  UNL1        0.0334
     33 C           8.5591   33.0379   -2.3081 C.ar    1  UNL1       -0.0080
     34 C           7.6221   34.0001   -2.6881 C.ar    1  UNL1       -0.0421
     35 C           7.8492   35.3307   -2.3691 C.ar    1  UNL1       -0.0553
     36 H           7.1223   36.0746   -2.6647 H       1  UNL1        0.0623
     37 C           8.9865   35.7242   -1.6815 C.ar    1  UNL1       -0.0499
     38 C           9.9081   34.7533   -1.3135 C.ar    1  UNL1       -0.0553
     39 H          10.8000   35.0483   -0.7781 H       1  UNL1        0.0623
     40 C           9.7109   33.4158   -1.6177 C.ar    1  UNL1       -0.0421
     41 C           6.3868   33.5929   -3.4337 C.3     1  UNL1       -0.0391
     42 H           6.6517   33.0684   -4.3513 H       1  UNL1        0.0278
     43 H           5.7848   34.4617   -3.6882 H       1  UNL1        0.0278
     44 H           5.7841   32.9155   -2.8291 H       1  UNL1        0.0278
     45 C           9.2277   37.1625   -1.3344 C.3     1  UNL1       -0.0397
     46 H           8.4426   37.7976   -1.7369 H       1  UNL1        0.0278
     47 H          10.1847   37.4952   -1.7343 H       1  UNL1        0.0278
     48 H           9.2571   37.2910   -0.2527 H       1  UNL1        0.0278
     49 C          10.7232   32.3850   -1.2190 C.3     1  UNL1       -0.0391
     50 H          11.1493   31.9134   -2.1045 H       1  UNL1        0.0278
     51 H          10.2582   31.6064   -0.6157 H       1  UNL1        0.0278
     52 H          11.5289   32.8357   -0.6448 H       1  UNL1        0.0278
     53 C           4.5231   28.0581    0.2996 C.ar    1  UNL1       -0.0080
     54 C           3.2613   28.6229    0.0982 C.ar    1  UNL1       -0.0421
     55 C           2.3255   28.5652    1.1182 C.ar    1  UNL1       -0.0553
     56 H           1.3480   29.0015    0.9651 H       1  UNL1        0.0623
     57 C           2.6146   27.9584    2.3331 C.ar    1  UNL1       -0.0499
     58 C           3.8709   27.4007    2.5125 C.ar    1  UNL1       -0.0553
     59 H           4.1122   26.9234    3.4522 H       1  UNL1        0.0623
     60 C           4.8293   27.4410    1.5104 C.ar    1  UNL1       -0.0421
     61 C           2.9299   29.2811   -1.2078 C.3     1  UNL1       -0.0391
     62 H           3.1102   28.5966   -2.0360 H       1  UNL1        0.0278
     63 H           3.5591   30.1578   -1.3612 H       1  UNL1        0.0278
     64 H           1.8885   29.5926   -1.2300 H       1  UNL1        0.0278
     65 C           1.5770   27.8987    3.4136 C.3     1  UNL1       -0.0397
     66 H           2.0156   27.5863    4.3580 H       1  UNL1        0.0278
     67 H           0.7965   27.1861    3.1455 H       1  UNL1        0.0278
     68 H           1.1069   28.8712    3.5488 H       1  UNL1        0.0278
     69 C           6.1852   26.8419    1.7135 C.3     1  UNL1       -0.0391
     70 H           6.9540   27.5990    1.5716 H       1  UNL1        0.0278
     71 H           6.3697   26.0540    0.9844 H       1  UNL1        0.0278
     72 H           6.2823   26.4242    2.7123 H       1  UNL1        0.0278
     73 C           5.8990   24.0489   -5.1707 C.ar    1  UNL1       -0.0080
     74 C           4.7653   24.1016   -5.9835 C.ar    1  UNL1       -0.0421
     75 C           4.2313   22.9217   -6.4799 C.ar    1  UNL1       -0.0553
     76 H           3.3532   22.9650   -7.1092 H       1  UNL1        0.0623
     77 C           4.7989   21.6921   -6.1851 C.ar    1  UNL1       -0.0499
     78 C           5.9241   21.6592   -5.3724 C.ar    1  UNL1       -0.0553
     79 H           6.3747   20.7057   -5.1337 H       1  UNL1        0.0623
     80 C           6.4814   22.8199   -4.8604 C.ar    1  UNL1       -0.0421
     81 C           4.1345   25.4221   -6.3094 C.3     1  UNL1       -0.0391
     82 H           3.8539   25.9450   -5.3954 H       1  UNL1        0.0278
     83 H           3.2461   25.2855   -6.9211 H       1  UNL1        0.0278
     84 H           4.8367   26.0563   -6.8499 H       1  UNL1        0.0278
     85 C           4.2191   20.4180   -6.7215 C.3     1  UNL1       -0.0397
     86 H           3.3573   20.6176   -7.3534 H       1  UNL1        0.0278
     87 H           3.9070   19.7696   -5.9034 H       1  UNL1        0.0278
     88 H           4.9628   19.8789   -7.3072 H       1  UNL1        0.0278
     89 C           7.6988   22.7627   -3.9885 C.3     1  UNL1       -0.0391
     90 H           7.9878   21.7325   -3.7952 H       1  UNL1        0.0278
     91 H           7.5065   23.2572   -3.0368 H       1  UNL1        0.0278
     92 H           8.5312   23.2734   -4.4715 H       1  UNL1        0.0278
     93 C          10.0197   28.9867   -7.7579 C.ar    1  UNL1       -0.0080
     94 C          11.3534   28.5971   -7.8622 C.ar    1  UNL1       -0.0421
     95 C          12.0170   28.7717   -9.0689 C.ar    1  UNL1       -0.0553
     96 H          13.0519   28.4688   -9.1479 H       1  UNL1        0.0623
     97 C          11.3819   29.3228  -10.1700 C.ar    1  UNL1       -0.0499
     98 C          10.0517   29.7039  -10.0474 C.ar    1  UNL1       -0.0553
     99 H           9.5450   30.1336  -10.9004 H       1  UNL1        0.0623
    100 C           9.3616   29.5429   -8.8577 C.ar    1  UNL1       -0.0421
    101 C          12.0691   28.0170   -6.6796 C.3     1  UNL1       -0.0391
    102 H          12.9896   27.5271   -6.9878 H       1  UNL1        0.0278
    103 H          11.4400   27.2971   -6.1596 H       1  UNL1        0.0278
    104 H          12.3237   28.8093   -5.9748 H       1  UNL1        0.0278
    105 C          12.1014   29.5093  -11.4719 C.3     1  UNL1       -0.0397
    106 H          13.1232   29.1440  -11.4085 H       1  UNL1        0.0278
    107 H          12.1258   30.5641  -11.7438 H       1  UNL1        0.0278
    108 H          11.5886   28.9729  -12.2694 H       1  UNL1        0.0278
    109 C           7.9252   29.9558   -8.7405 C.3     1  UNL1       -0.0391
    110 H           7.3085   29.1061   -8.4489 H       1  UNL1        0.0278
    111 H           7.5572   30.3479   -9.6855 H       1  UNL1        0.0278
    112 H           7.8120   30.7233   -7.9752 H       1  UNL1        0.0278
@<TRIPOS>BOND
     1   108   105    1
     2   107   105    1
     3   105   106    1
     4   105    97    1
     5    99    98    1
     6    97    98   ar
     7    97    95   ar
     8    98   100   ar
     9   111   109    1
    10    96    95    1
    11    95    94   ar
    12   100   109    1
    13   100    93   ar
    14   109   110    1
    15   109   112    1
    16    30    29    1
    17    94    93   ar
    18    94   101    1
    19    93    32    1
    20    86    85    1
    21    88    85    1
    22    29    27    2
    23    29    31    1
    24    28    27    1
    25    76    75    1
    26   102   101    1
    27    83    81    1
    28    84    81    1
    29    27    26    1
    30    85    77    1
    31    85    87    1
    32     7     6    1
    33   101   103    1
    34   101   104    1
    35    32    31    1
    36    32     5    2
    37    75    77   ar
    38    75    74   ar
    39    81    74    1
    40    81    82    1
    41    31     4    2
    42    77    78   ar
    43    74    73   ar
    44     6     5   ar
    45     6     8   ar
    46     5     1   ar
    47    26     4    1
    48    26    25    2
    49    78    79    1
    50    78    80   ar
    51    73    80   ar
    52    73    25    1
    53    80    89    1
    54     8     9    1
    55     8    10   ar
    56    25    24    1
    57    92    89    1
    58     1    10   ar
    59    42    41    1
    60    89    90    1
    61    89    91    1
    62    10    11    2
    63    43    41    1
    64    41    44    1
    65    41    34    1
    66    24     3   ar
    67    24    22   ar
    68    23    22    1
    69     3    19   ar
    70    34    35   ar
    71    34    33   ar
    72    36    35    1
    73    11    33    1
    74    11    12    1
    75    22    20   ar
    76    35    37   ar
    77    33    40   ar
    78    50    49    1
    79    62    61    1
    80     2    12    2
    81     2    17    1
    82    12    13    1
    83    46    45    1
    84    47    45    1
    85    19    20   ar
    86    19    18    1
    87    37    45    1
    88    37    38   ar
    89    40    38   ar
    90    40    49    1
    91    20    21    1
    92    63    61    1
    93    45    48    1
    94    38    39    1
    95    64    61    1
    96    49    52    1
    97    49    51    1
    98    61    54    1
    99    17    18    2
   100    17    15    1
   101    18    53    1
   102    13    14    1
   103    13    15    2
   104    15    16    1
   105    54    53   ar
   106    54    55   ar
   107    53    60   ar
   108    56    55    1
   109    71    69    1
   110    55    57   ar
   111    60    69    1
   112    60    58   ar
   113    70    69    1
   114    69    72    1
   115    57    58   ar
   116    57    65    1
   117    58    59    1
   118    67    65    1
   119    65    68    1
   120    65    66    1
