@<TRIPOS>MOLECULE
2,7,12,16
 88 87 0 0 0
SMALL
GASTEIGER

@<TRIPOS>ATOM
      1 SI         -4.0454    4.3306   12.0597 Si      1  UNL1        0.0000
      2 N          -2.9037    5.3487   11.3049 N.3     1  UNL1        0.0000
      3 C          -3.6033    6.0737    9.0771 C.3     1  UNL1        0.0000
      4 H          -4.3983    5.3250    9.0856 H       1  UNL1        0.0000
      5 H          -3.9367    6.9295    8.4692 H       1  UNL1        0.0000
      6 SI          0.4346    7.5353   10.6421 Si      1  UNL1        0.0000
      7 N           0.0788    6.1014    9.7860 N.3     1  UNL1        0.0000
      8 C          -3.3477    6.4935   10.5376 C.3     1  UNL1        0.0000
      9 H          -2.5731    7.2762   10.5527 H       1  UNL1        0.0000
     10 H          -4.2733    6.9309   10.9374 H       1  UNL1        0.0000
     11 SI         -0.0856    2.1466    8.5032 Si      1  UNL1        0.0000
     12 N          -1.4120    2.9276    9.2356 N.3     1  UNL1        0.0000
     13 C          -1.4850    6.4523    7.9314 C.3     1  UNL1        0.0000
     14 H          -1.7219    7.4443    8.3224 H       1  UNL1        0.0000
     15 H          -1.5896    6.4761    6.8356 H       1  UNL1        0.0000
     16 N          -2.3851    5.4710    8.5371 N.3     1  UNL1        0.0000
     17 C          -0.0330    6.1308    8.3422 C.3     1  UNL1        0.0000
     18 H           0.2452    5.1482    7.9256 H       1  UNL1        0.0000
     19 H           0.6247    6.8849    7.8867 H       1  UNL1        0.0000
     20 C          -2.6576    4.3232    7.6721 C.3     1  UNL1        0.0000
     21 H          -1.8456    4.2184    6.9492 H       1  UNL1        0.0000
     22 H          -3.6033    4.4461    7.1211 H       1  UNL1        0.0000
     23 C          -2.6715    3.0450    8.5353 C.3     1  UNL1        0.0000
     24 H          -3.5002    3.1094    9.2597 H       1  UNL1        0.0000
     25 H          -2.8686    2.1856    7.8778 H       1  UNL1        0.0000
     26 C          -3.2698    2.5736   12.0491 C.3     1  UNL1        0.0000
     27 H          -2.3353    2.5662   11.4698 H       1  UNL1        0.0000
     28 H          -3.9483    1.8453   11.6149 H       1  UNL1        0.0000
     29 H          -3.0574    2.2328   13.0566 H       1  UNL1        0.0000
     30 C          -5.7607    4.1726   11.1810 C.3     1  UNL1        0.0000
     31 H          -5.6827    3.6544   10.2286 H       1  UNL1        0.0000
     32 H          -6.1933    5.1496   10.9875 H       1  UNL1        0.0000
     33 H          -6.4718    3.6189   11.7843 H       1  UNL1        0.0000
     34 C          -4.4378    4.8928   13.8840 C.3     1  UNL1        0.0000
     35 C          -5.0910    6.2760   13.8723 C.3     1  UNL1        0.0000
     36 H          -5.3102    6.6069   14.8877 H       1  UNL1        0.0000
     37 H          -6.0238    6.2596   13.3138 H       1  UNL1        0.0000
     38 H          -4.4259    7.0041   13.4135 H       1  UNL1        0.0000
     39 C          -5.3768    3.9124   14.5868 C.3     1  UNL1        0.0000
     40 H          -5.5316    4.2108   15.6239 H       1  UNL1        0.0000
     41 H          -4.9627    2.9073   14.5818 H       1  UNL1        0.0000
     42 H          -6.3470    3.8841   14.0985 H       1  UNL1        0.0000
     43 C          -3.1435    4.9871   14.6941 C.3     1  UNL1        0.0000
     44 H          -3.3478    5.3590   15.6987 H       1  UNL1        0.0000
     45 H          -2.4424    5.6672   14.2136 H       1  UNL1        0.0000
     46 H          -2.6742    4.0102   14.7888 H       1  UNL1        0.0000
     47 C          -0.2093    9.1732    9.8414 C.3     1  UNL1        0.0000
     48 H          -1.2904    9.2617    9.9099 H       1  UNL1        0.0000
     49 H           0.0588    9.2303    8.7907 H       1  UNL1        0.0000
     50 H           0.2111   10.0466   10.3282 H       1  UNL1        0.0000
     51 C          -0.4119    7.4288   12.3635 C.3     1  UNL1        0.0000
     52 H          -1.1934    6.6644   12.3645 H       1  UNL1        0.0000
     53 H          -0.8632    8.3792   12.6306 H       1  UNL1        0.0000
     54 H           0.2969    7.1900   13.1489 H       1  UNL1        0.0000
     55 C           2.3556    7.7744   10.8555 C.3     1  UNL1        0.0000
     56 C           2.6808    8.9314   11.7994 C.3     1  UNL1        0.0000
     57 H           3.7582    9.0145   11.9439 H       1  UNL1        0.0000
     58 H           2.2187    8.7798   12.7714 H       1  UNL1        0.0000
     59 H           2.3226    9.8748   11.3959 H       1  UNL1        0.0000
     60 C           3.0072    8.0509    9.4994 C.3     1  UNL1        0.0000
     61 H           4.0844    8.1791    9.6096 H       1  UNL1        0.0000
     62 H           2.6037    8.9558    9.0518 H       1  UNL1        0.0000
     63 H           2.8330    7.2206    8.8187 H       1  UNL1        0.0000
     64 C           2.9674    6.4929   11.4227 C.3     1  UNL1        0.0000
     65 H           4.0541    6.5723   11.4708 H       1  UNL1        0.0000
     66 H           2.7091    5.6439   10.7912 H       1  UNL1        0.0000
     67 H           2.6004    6.3047   12.4295 H       1  UNL1        0.0000
     68 C           0.1491    2.3862    6.5949 C.3     1  UNL1        0.0000
     69 H           0.4154    3.4086    6.3376 H       1  UNL1        0.0000
     70 H          -0.7559    2.1346    6.0500 H       1  UNL1        0.0000
     71 H           0.9403    1.7481    6.2139 H       1  UNL1        0.0000
     72 C           1.4392    2.9692    9.3225 C.3     1  UNL1        0.0000
     73 H           1.1445    3.9030    9.8241 H       1  UNL1        0.0000
     74 H           2.2100    3.1947    8.5919 H       1  UNL1        0.0000
     75 H           1.8853    2.3153   10.0624 H       1  UNL1        0.0000
     76 C          -0.1309    0.2229    8.7816 C.3     1  UNL1        0.0000
     77 C           1.2794   -0.3653    8.7864 C.3     1  UNL1        0.0000
     78 H           1.2400   -1.4494    8.8933 H       1  UNL1        0.0000
     79 H           1.8582    0.0333    9.6153 H       1  UNL1        0.0000
     80 H           1.8018   -0.1351    7.8608 H       1  UNL1        0.0000
     81 C          -0.9447   -0.4741    7.6892 C.3     1  UNL1        0.0000
     82 H          -1.0152   -1.5432    7.8909 H       1  UNL1        0.0000
     83 H          -0.4835   -0.3448    6.7138 H       1  UNL1        0.0000
     84 H          -1.9553   -0.0729    7.6466 H       1  UNL1        0.0000
     85 C          -0.7880   -0.0710   10.1302 C.3     1  UNL1        0.0000
     86 H          -0.8030   -1.1437   10.3251 H       1  UNL1        0.0000
     87 H          -1.8125    0.2952   10.1420 H       1  UNL1        0.0000
     88 H          -0.2429    0.4168   10.9343 H       1  UNL1        0.0000
@<TRIPOS>BOND
     1    70    68    1
     2    71    68    1
     3    69    68    1
     4    68    11    1
     5    83    81    1
     6    15    13    1
     7    21    20    1
     8    22    20    1
     9    84    81    1
    10    20    23    1
    11    20    16    1
    12    81    82    1
    13    81    76    1
    14    80    77    1
    15    25    23    1
    16    19    17    1
    17    18    17    1
    18    13    14    1
    19    13    17    1
    20    13    16    1
    21    17     7    1
    22     5     3    1
    23    11    76    1
    24    11    12    1
    25    11    72    1
    26    23    12    1
    27    23    24    1
    28    16     3    1
    29    74    72    1
    30    76    77    1
    31    76    85    1
    32    77    78    1
    33    77    79    1
    34    49    47    1
    35    63    60    1
    36    62    60    1
    37     3     4    1
    38     3     8    1
    39    72    73    1
    40    72    75    1
    41    60    61    1
    42    60    55    1
    43     7     6    1
    44    47    48    1
    45    47    50    1
    46    47     6    1
    47    85    87    1
    48    85    86    1
    49    85    88    1
    50    31    30    1
    51     8     9    1
    52     8    10    1
    53     8     2    1
    54     6    55    1
    55     6    51    1
    56    66    64    1
    57    55    64    1
    58    55    56    1
    59    32    30    1
    60    30    33    1
    61    30     1    1
    62     2     1    1
    63    59    56    1
    64    64    65    1
    65    64    67    1
    66    27    26    1
    67    28    26    1
    68    56    57    1
    69    56    58    1
    70    26     1    1
    71    26    29    1
    72     1    34    1
    73    51    52    1
    74    51    53    1
    75    51    54    1
    76    37    35    1
    77    38    35    1
    78    35    34    1
    79    35    36    1
    80    34    39    1
    81    34    43    1
    82    42    39    1
    83    45    43    1
    84    41    39    1
    85    39    40    1
    86    43    46    1
    87    43    44    1
