@<TRIPOS>MOLECULE
4,5,6,7
 88 87 0 0 0
SMALL
GASTEIGER

@<TRIPOS>ATOM
      1 SI         -2.8734   -1.6455   13.9374 Si      1  UNL1        0.0000
      2 SI          0.6409   -4.4675   11.0702 Si      1  UNL1        0.0000
      3 SI         -0.9282    1.3842    9.3728 Si      1  UNL1        0.0000
      4 N          -2.5150   -0.8889   12.4518 N.3     1  UNL1        0.0000
      5 N          -2.8956   -2.0381    9.8756 N.3     1  UNL1        0.0000
      6 N          -0.7527   -3.4884   11.0633 N.3     1  UNL1        0.0000
      7 N          -0.7635   -0.3136    9.3489 N.3     1  UNL1        0.0000
      8 C          -2.0782    0.6965   15.4158 C.3     1  UNL1        0.0000
      9 H          -2.3367    1.4912   16.1169 H       1  UNL1        0.0000
     10 H          -1.9419    1.1368   14.4298 H       1  UNL1        0.0000
     11 H          -1.1333    0.2650   15.7364 H       1  UNL1        0.0000
     12 C          -3.2104   -1.0643   16.7452 C.3     1  UNL1        0.0000
     13 H          -3.3424   -0.3344   17.5443 H       1  UNL1        0.0000
     14 H          -2.2837   -1.6024   16.9271 H       1  UNL1        0.0000
     15 H          -4.0312   -1.7742   16.8004 H       1  UNL1        0.0000
     16 C          -4.5136    0.3503   15.1768 C.3     1  UNL1        0.0000
     17 H          -4.7022    1.0512   15.9908 H       1  UNL1        0.0000
     18 H          -5.3378   -0.3574   15.1450 H       1  UNL1        0.0000
     19 H          -4.5027    0.9115   14.2454 H       1  UNL1        0.0000
     20 C          -3.1777   -0.3671   15.3847 C.3     1  UNL1        0.0000
     21 C          -4.4532   -2.7680   13.9794 C.3     1  UNL1        0.0000
     22 H          -5.3155   -2.2543   13.5640 H       1  UNL1        0.0000
     23 H          -4.7098   -3.0548   14.9938 H       1  UNL1        0.0000
     24 H          -4.3179   -3.6887   13.4175 H       1  UNL1        0.0000
     25 C          -1.3977   -2.8167   14.3007 C.3     1  UNL1        0.0000
     26 H          -0.8130   -2.4967   15.1559 H       1  UNL1        0.0000
     27 H          -0.7411   -2.8620   13.4251 H       1  UNL1        0.0000
     28 H          -1.7434   -3.8222   14.5187 H       1  UNL1        0.0000
     29 C          -3.6022   -0.4479   11.6028 C.3     1  UNL1        0.0000
     30 H          -3.2722    0.4046   10.9881 H       1  UNL1        0.0000
     31 H          -4.4817   -0.1237   12.1784 H       1  UNL1        0.0000
     32 C          -4.0425   -1.5946   10.6707 C.3     1  UNL1        0.0000
     33 H          -4.3820   -2.4176   11.3030 H       1  UNL1        0.0000
     34 H          -4.8814   -1.2838   10.0288 H       1  UNL1        0.0000
     35 C          -2.8239   -3.4952    9.7606 C.3     1  UNL1        0.0000
     36 H          -2.2495   -3.7539    8.8661 H       1  UNL1        0.0000
     37 H          -3.8270   -3.9427    9.6651 H       1  UNL1        0.0000
     38 C          -2.0769   -4.0650   10.9786 C.3     1  UNL1        0.0000
     39 H          -2.6521   -3.8292   11.8906 H       1  UNL1        0.0000
     40 H          -2.0482   -5.1585   10.8814 H       1  UNL1        0.0000
     41 C           1.7989   -3.8581   12.4672 C.3     1  UNL1        0.0000
     42 H           1.7065   -2.7772   12.5434 H       1  UNL1        0.0000
     43 H           2.8385   -4.1045   12.2826 H       1  UNL1        0.0000
     44 H           1.5306   -4.2884   13.4267 H       1  UNL1        0.0000
     45 C           0.2872   -6.3310   11.3685 C.3     1  UNL1        0.0000
     46 H          -0.3235   -6.4626   12.2556 H       1  UNL1        0.0000
     47 H           1.2048   -6.8878   11.5197 H       1  UNL1        0.0000
     48 H          -0.2382   -6.7864   10.5356 H       1  UNL1        0.0000
     49 C           1.5893   -4.3125    9.3751 C.3     1  UNL1        0.0000
     50 C           1.9338   -2.8331    9.1957 C.3     1  UNL1        0.0000
     51 H           2.2965   -2.6334    8.1852 H       1  UNL1        0.0000
     52 H           2.7172   -2.5539    9.8960 H       1  UNL1        0.0000
     53 H           1.0525   -2.2069    9.3972 H       1  UNL1        0.0000
     54 C           2.8782   -5.1325    9.3378 C.3     1  UNL1        0.0000
     55 H           3.4065   -4.9770    8.3964 H       1  UNL1        0.0000
     56 H           2.6613   -6.1933    9.4335 H       1  UNL1        0.0000
     57 H           3.5429   -4.8474   10.1487 H       1  UNL1        0.0000
     58 C           0.7048   -4.7601    8.2111 C.3     1  UNL1        0.0000
     59 H           1.2135   -4.6154    7.2569 H       1  UNL1        0.0000
     60 H          -0.2201   -4.1866    8.1953 H       1  UNL1        0.0000
     61 H           0.4509   -5.8137    8.3020 H       1  UNL1        0.0000
     62 C          -2.8218   -1.3731    8.5742 C.3     1  UNL1        0.0000
     63 H          -3.3488   -0.4189    8.6312 H       1  UNL1        0.0000
     64 H          -3.2863   -1.9810    7.7813 H       1  UNL1        0.0000
     65 C          -1.3461   -1.0651    8.2566 C.3     1  UNL1        0.0000
     66 H          -0.8018   -2.0131    8.1144 H       1  UNL1        0.0000
     67 H          -1.3075   -0.5209    7.3018 H       1  UNL1        0.0000
     68 C          -2.6188    2.1301    8.7702 C.3     1  UNL1        0.0000
     69 H          -2.8969    1.7398    7.7954 H       1  UNL1        0.0000
     70 H          -2.5606    3.2096    8.6746 H       1  UNL1        0.0000
     71 H          -3.4385    1.9210    9.4531 H       1  UNL1        0.0000
     72 C          -0.7891    1.8909   11.2173 C.3     1  UNL1        0.0000
     73 H           0.2219    2.1888   11.4711 H       1  UNL1        0.0000
     74 H          -1.0670    1.0456   11.8597 H       1  UNL1        0.0000
     75 H          -1.4352    2.7333   11.4454 H       1  UNL1        0.0000
     76 C           0.3727    2.3321    8.2628 C.3     1  UNL1        0.0000
     77 C          -0.0184    2.2499    6.7855 C.3     1  UNL1        0.0000
     78 H           0.7107    2.7761    6.1684 H       1  UNL1        0.0000
     79 H          -0.9922    2.6984    6.6109 H       1  UNL1        0.0000
     80 H          -0.0517    1.2140    6.4555 H       1  UNL1        0.0000
     81 C           1.7660    1.7209    8.4102 C.3     1  UNL1        0.0000
     82 H           2.4684    2.2006    7.7271 H       1  UNL1        0.0000
     83 H           1.7413    0.6568    8.1853 H       1  UNL1        0.0000
     84 H           2.1371    1.8525    9.4224 H       1  UNL1        0.0000
     85 C           0.4523    3.8070    8.6593 C.3     1  UNL1        0.0000
     86 H           1.1917    4.3262    8.0489 H       1  UNL1        0.0000
     87 H           0.7400    3.9111    9.7020 H       1  UNL1        0.0000
     88 H          -0.5049    4.3022    8.5201 H       1  UNL1        0.0000
@<TRIPOS>BOND
     1    78    77    1
     2    80    77    1
     3    79    77    1
     4    77    76    1
     5    59    58    1
     6    67    65    1
     7    82    81    1
     8    64    62    1
     9    69    68    1
    10    86    85    1
    11    66    65    1
    12    51    50    1
    13    83    81    1
    14    60    58    1
    15    58    61    1
    16    58    49    1
    17    65    62    1
    18    65     7    1
    19    76    81    1
    20    76    85    1
    21    76     3    1
    22    55    54    1
    23    81    84    1
    24    88    85    1
    25    62    63    1
    26    62     5    1
    27    85    87    1
    28    70    68    1
    29    68     3    1
    30    68    71    1
    31    36    35    1
    32    50    49    1
    33    50    53    1
    34    50    52    1
    35    54    49    1
    36    54    56    1
    37    54    57    1
    38     7     3    1
    39     3    72    1
    40    49     2    1
    41    37    35    1
    42    35     5    1
    43    35    38    1
    44     5    32    1
    45    34    32    1
    46    48    45    1
    47    32    33    1
    48    32    29    1
    49    40    38    1
    50    38     6    1
    51    38    39    1
    52    30    29    1
    53     6     2    1
    54     2    45    1
    55     2    41    1
    56    72    75    1
    57    72    73    1
    58    72    74    1
    59    45    47    1
    60    45    46    1
    61    29    31    1
    62    29     4    1
    63    43    41    1
    64     4     1    1
    65    41    42    1
    66    41    44    1
    67    24    21    1
    68    27    25    1
    69    22    21    1
    70     1    21    1
    71     1    25    1
    72     1    20    1
    73    21    23    1
    74    19    16    1
    75    25    28    1
    76    25    26    1
    77    10     8    1
    78    18    16    1
    79    16    20    1
    80    16    17    1
    81    20     8    1
    82    20    12    1
    83     8    11    1
    84     8     9    1
    85    12    15    1
    86    12    14    1
    87    12    13    1
