@<TRIPOS>MOLECULE
1,2,3,4
 61 60 0 0 0
SMALL
GASTEIGER

@<TRIPOS>ATOM
      1 N           8.0575    4.6934    4.0970 N.3     1  UNL1        0.0000
      2 N           4.5339    3.4939    4.5782 N.3     1  UNL1        0.0000
      3 N           6.5788    2.3366    2.0976 N.3     1  UNL1        0.0000
      4 N           5.6235    4.9302    2.4859 N.3     1  UNL1        0.0000
      5 SI          9.4552    4.9617    5.0429 Si      1  UNL1        0.0000
      6 SI          3.3715    2.2595    4.3815 Si      1  UNL1        0.0000
      7 SI          7.9647    1.5935    1.4409 Si      1  UNL1        0.0000
      8 C           7.9727    5.5120    2.8996 C.3     1  UNL1        0.0000
      9 H           8.2804    4.9273    2.0121 H       1  UNL1        0.0000
     10 H           8.6370    6.3877    2.9490 H       1  UNL1        0.0000
     11 C           4.0948    4.8577    4.3791 C.3     1  UNL1        0.0000
     12 H           4.6984    5.5452    4.9911 H       1  UNL1        0.0000
     13 H           3.0447    5.0053    4.6717 H       1  UNL1        0.0000
     14 C           5.5461    2.8514    1.2288 C.3     1  UNL1        0.0000
     15 H           4.5529    2.6077    1.6374 H       1  UNL1        0.0000
     16 H           5.5985    2.4302    0.2149 H       1  UNL1        0.0000
     17 C           6.5455    6.0420    2.6953 C.3     1  UNL1        0.0000
     18 H           6.2568    6.5745    3.6096 H       1  UNL1        0.0000
     19 H           6.5152    6.7558    1.8529 H       1  UNL1        0.0000
     20 C           4.2557    5.2443    2.8976 C.3     1  UNL1        0.0000
     21 H           3.5607    4.6348    2.3164 H       1  UNL1        0.0000
     22 H           4.0141    6.3062    2.7286 H       1  UNL1        0.0000
     23 C           5.6790    4.3836    1.1290 C.3     1  UNL1        0.0000
     24 H           6.6521    4.6040    0.6827 H       1  UNL1        0.0000
     25 H           4.8982    4.8191    0.4857 H       1  UNL1        0.0000
     26 C          11.0909    5.1256    4.0462 C.3     1  UNL1        0.0000
     27 H          10.9766    5.7980    3.2011 H       1  UNL1        0.0000
     28 H          11.4198    4.1663    3.6596 H       1  UNL1        0.0000
     29 H          11.8904    5.5193    4.6657 H       1  UNL1        0.0000
     30 C           9.3361    6.5950    6.0673 C.3     1  UNL1        0.0000
     31 H           8.5377    6.5566    6.8033 H       1  UNL1        0.0000
     32 H           9.1481    7.4517    5.4254 H       1  UNL1        0.0000
     33 H          10.2590    6.7909    6.6033 H       1  UNL1        0.0000
     34 C           9.7408    3.5336    6.2778 C.3     1  UNL1        0.0000
     35 H           9.2029    3.6869    7.2121 H       1  UNL1        0.0000
     36 H          10.7944    3.4676    6.5242 H       1  UNL1        0.0000
     37 H           9.4466    2.5731    5.8566 H       1  UNL1        0.0000
     38 C           2.2057    2.1392    5.9171 C.3     1  UNL1        0.0000
     39 H           2.6646    2.5471    6.8129 H       1  UNL1        0.0000
     40 H           1.9091    1.1165    6.1256 H       1  UNL1        0.0000
     41 H           1.2952    2.7048    5.7418 H       1  UNL1        0.0000
     42 C           4.3363    0.6529    3.9814 C.3     1  UNL1        0.0000
     43 H           4.7192    0.1617    4.8706 H       1  UNL1        0.0000
     44 H           5.1864    0.8651    3.3240 H       1  UNL1        0.0000
     45 H           3.6894   -0.0621    3.4822 H       1  UNL1        0.0000
     46 C           2.0514    2.4363    2.9727 C.3     1  UNL1        0.0000
     47 H           1.5691    3.4098    3.0121 H       1  UNL1        0.0000
     48 H           1.2693    1.6928    3.0964 H       1  UNL1        0.0000
     49 H           2.4558    2.3076    1.9723 H       1  UNL1        0.0000
     50 C           8.4181    2.1737   -0.3432 C.3     1  UNL1        0.0000
     51 H           8.6181    3.2406   -0.3907 H       1  UNL1        0.0000
     52 H           7.6145    1.9608   -1.0414 H       1  UNL1        0.0000
     53 H           9.3024    1.6618   -0.7074 H       1  UNL1        0.0000
     54 C           7.7660   -0.3142    1.2903 C.3     1  UNL1        0.0000
     55 H           7.4499   -0.7394    2.2370 H       1  UNL1        0.0000
     56 H           8.6939   -0.7929    0.9943 H       1  UNL1        0.0000
     57 H           7.0159   -0.5735    0.5485 H       1  UNL1        0.0000
     58 C           9.4492    2.0545    2.5556 C.3     1  UNL1        0.0000
     59 H          10.0352    2.8619    2.1279 H       1  UNL1        0.0000
     60 H          10.1156    1.2128    2.7025 H       1  UNL1        0.0000
     61 H           9.0877    2.3760    3.5342 H       1  UNL1        0.0000
@<TRIPOS>BOND
     1    52    50    1
     2    53    50    1
     3    51    50    1
     4    50     7    1
     5    16    14    1
     6    25    23    1
     7    57    54    1
     8    24    23    1
     9    56    54    1
    10    23    14    1
    11    23     4    1
    12    14    15    1
    13    14     3    1
    14    54     7    1
    15    54    55    1
    16     7     3    1
    17     7    58    1
    18    19    17    1
    19    49    46    1
    20     9     8    1
    21    59    58    1
    22    21    20    1
    23     4    17    1
    24     4    20    1
    25    58    60    1
    26    58    61    1
    27    17     8    1
    28    17    18    1
    29    22    20    1
    30    20    11    1
    31     8    10    1
    32     8     1    1
    33    46    47    1
    34    46    48    1
    35    46     6    1
    36    27    26    1
    37    44    42    1
    38    45    42    1
    39    28    26    1
    40    42     6    1
    41    42    43    1
    42    26    29    1
    43    26     5    1
    44     1     5    1
    45    11     2    1
    46    11    13    1
    47    11    12    1
    48     6     2    1
    49     6    38    1
    50     5    30    1
    51     5    34    1
    52    32    30    1
    53    41    38    1
    54    37    34    1
    55    38    40    1
    56    38    39    1
    57    30    33    1
    58    30    31    1
    59    34    36    1
    60    34    35    1
