@<TRIPOS>MOLECULE
4,5,6,26
 61 60 0 0 0
SMALL
GASTEIGER

@<TRIPOS>ATOM
      1 SI          5.0714    2.1165    6.3780 Si      1  UNL1        0.0000
      2 SI          6.8835    3.8454   11.4751 Si      1  UNL1        0.0000
      3 SI          4.1251    7.7358    8.2677 Si      1  UNL1        0.0000
      4 N           4.1412    6.0988    7.7669 N.3     1  UNL1        0.0000
      5 N           5.8243    4.8463   10.5848 N.3     1  UNL1        0.0000
      6 N           3.3284    4.0334    9.5261 N.3     1  UNL1        0.0000
      7 C           4.5966    5.2930   11.2123 C.3     1  UNL1        0.0000
      8 H           4.2890    6.2636   10.7945 H       1  UNL1        0.0000
      9 H           4.7120    5.4226   12.2990 H       1  UNL1        0.0000
     10 C           3.4707    4.2684   10.9655 C.3     1  UNL1        0.0000
     11 H           3.7649    3.3350   11.4514 H       1  UNL1        0.0000
     12 H           2.5244    4.6068   11.4156 H       1  UNL1        0.0000
     13 C           4.5175    1.9633    9.0236 C.3     1  UNL1        0.0000
     14 H           5.0718    2.0142    9.9732 H       1  UNL1        0.0000
     15 H           4.3726    0.8996    8.7830 H       1  UNL1        0.0000
     16 C           2.3269    4.8921    8.8911 C.3     1  UNL1        0.0000
     17 H           2.1411    5.7603    9.5258 H       1  UNL1        0.0000
     18 H           1.3734    4.3614    8.7443 H       1  UNL1        0.0000
     19 C           5.3874    3.6568    5.2894 C.3     1  UNL1        0.0000
     20 H           6.3970    3.6465    4.8878 H       1  UNL1        0.0000
     21 H           5.2611    4.5576    5.8992 H       1  UNL1        0.0000
     22 H           4.7076    3.7084    4.4450 H       1  UNL1        0.0000
     23 C           2.8848    5.4119    7.5481 C.3     1  UNL1        0.0000
     24 H           3.0380    4.5541    6.8688 H       1  UNL1        0.0000
     25 H           2.1266    6.0663    7.0902 H       1  UNL1        0.0000
     26 N           5.2379    2.6699    7.9848 N.3     1  UNL1        0.0000
     27 C           3.1365    2.6158    9.2130 C.3     1  UNL1        0.0000
     28 H           2.6008    2.5272    8.2649 H       1  UNL1        0.0000
     29 H           2.5503    2.1039    9.9929 H       1  UNL1        0.0000
     30 C           8.0362    4.8454   12.6543 C.3     1  UNL1        0.0000
     31 H           8.0923    5.8940   12.3790 H       1  UNL1        0.0000
     32 H           9.0468    4.4499   12.6496 H       1  UNL1        0.0000
     33 H           7.6774    4.7990   13.6781 H       1  UNL1        0.0000
     34 C           2.6048    8.3160    9.3168 C.3     1  UNL1        0.0000
     35 H           2.5599    7.8655   10.3053 H       1  UNL1        0.0000
     36 H           1.6715    8.0927    8.8076 H       1  UNL1        0.0000
     37 H           2.6365    9.3912    9.4616 H       1  UNL1        0.0000
     38 C           6.2773    0.6980    5.9110 C.3     1  UNL1        0.0000
     39 H           7.3164    0.9931    6.0218 H       1  UNL1        0.0000
     40 H           6.1381    0.3899    4.8798 H       1  UNL1        0.0000
     41 H           6.1209   -0.1770    6.5355 H       1  UNL1        0.0000
     42 C           6.1090    2.5366   12.6693 C.3     1  UNL1        0.0000
     43 H           5.5990    1.7255   12.1558 H       1  UNL1        0.0000
     44 H           5.3947    3.0018   13.3436 H       1  UNL1        0.0000
     45 H           6.8808    2.0872   13.2868 H       1  UNL1        0.0000
     46 C           3.3321    1.4400    5.8819 C.3     1  UNL1        0.0000
     47 H           2.5646    2.2103    5.8713 H       1  UNL1        0.0000
     48 H           3.0089    0.6598    6.5650 H       1  UNL1        0.0000
     49 H           3.3600    1.0018    4.8897 H       1  UNL1        0.0000
     50 C           5.6760    8.0281    9.3564 C.3     1  UNL1        0.0000
     51 H           6.3919    8.6594    8.8426 H       1  UNL1        0.0000
     52 H           6.1676    7.0800    9.5992 H       1  UNL1        0.0000
     53 H           5.4228    8.5289   10.2861 H       1  UNL1        0.0000
     54 C           4.1182    8.9909    6.8081 C.3     1  UNL1        0.0000
     55 H           5.1191    9.1594    6.4280 H       1  UNL1        0.0000
     56 H           3.7267    9.9516    7.1258 H       1  UNL1        0.0000
     57 H           3.5037    8.6471    5.9813 H       1  UNL1        0.0000
     58 C           7.8973    2.8712   10.1741 C.3     1  UNL1        0.0000
     59 H           7.2682    2.5950    9.3240 H       1  UNL1        0.0000
     60 H           8.3002    1.9594   10.6042 H       1  UNL1        0.0000
     61 H           8.7401    3.4487    9.8073 H       1  UNL1        0.0000
@<TRIPOS>BOND
     1    22    19    1
     2    40    38    1
     3    20    19    1
     4    49    46    1
     5    19    21    1
     6    19     1    1
     7    47    46    1
     8    46     1    1
     9    46    48    1
    10    38    39    1
    11    38     1    1
    12    38    41    1
    13    57    54    1
    14     1    26    1
    15    55    54    1
    16    54    56    1
    17    54     3    1
    18    24    23    1
    19    25    23    1
    20    23     4    1
    21    23    16    1
    22     4     3    1
    23    26    13    1
    24    28    27    1
    25     3    34    1
    26     3    50    1
    27    18    16    1
    28    15    13    1
    29    36    34    1
    30    51    50    1
    31    16    17    1
    32    16     6    1
    33    13    27    1
    34    13    14    1
    35    27     6    1
    36    27    29    1
    37    34    37    1
    38    34    35    1
    39    59    58    1
    40    50    52    1
    41    50    53    1
    42     6    10    1
    43    61    58    1
    44    58    60    1
    45    58     2    1
    46     5     7    1
    47     5     2    1
    48     8     7    1
    49    10     7    1
    50    10    12    1
    51    10    11    1
    52     7     9    1
    53     2    30    1
    54     2    42    1
    55    43    42    1
    56    31    30    1
    57    32    30    1
    58    30    33    1
    59    42    45    1
    60    42    44    1
