@<TRIPOS>MOLECULE
2,3,4,5
 52 52 0 0 0
SMALL
GASTEIGER

@<TRIPOS>ATOM
      1 SI          5.3885    7.1410    4.0674 Si      1  UNL1        0.0000
      2 N           6.9345    7.0434    3.1376 N.3     1  UNL1        0.0000
      3 N           7.4316    4.8509    1.2750 N.3     1  UNL1        0.0000
      4 N           9.5343    5.6394    3.2042 N.3     1  UNL1        0.0000
      5 N           4.9305    5.5214    3.9973 N.3     1  UNL1        0.0000
      6 C           6.7661    7.2393    1.7108 C.3     1  UNL1        0.0000
      7 C           6.4667    5.9210    0.9887 C.3     1  UNL1        0.0000
      8 C           6.9785    3.6244    0.6184 C.3     1  UNL1        0.0000
      9 C           8.7881    5.1932    0.8270 C.3     1  UNL1        0.0000
     10 C           9.8480    4.9957    1.9206 C.3     1  UNL1        0.0000
     11 C          10.5716    5.2713    4.1689 C.3     1  UNL1        0.0000
     12 C           9.4442    7.1064    3.1006 C.3     1  UNL1        0.0000
     13 C           8.1206    7.6725    3.6659 C.3     1  UNL1        0.0000
     14 C           4.3045    8.5025    3.2422 C.3     1  UNL1        0.0000
     15 C           5.7725    7.9233    5.7861 C.3     1  UNL1        0.0000
     16 C           3.6852    4.9559    4.4773 C.3     1  UNL1        0.0000
     17 C           3.3399    3.7361    3.6018 C.3     1  UNL1        0.0000
     18 C           3.8220    4.4917    5.9399 C.3     1  UNL1        0.0000
     19 C           2.5170    5.9466    4.4007 C.3     1  UNL1        0.0000
     20 H           7.6527    7.7149    1.2843 H       1  UNL1        0.0000
     21 H           5.9296    7.9104    1.4927 H       1  UNL1        0.0000
     22 H           5.4906    5.5777    1.3404 H       1  UNL1        0.0000
     23 H           6.4088    6.1145   -0.0967 H       1  UNL1        0.0000
     24 H           6.0064    3.3280    1.0172 H       1  UNL1        0.0000
     25 H           7.6963    2.8263    0.8048 H       1  UNL1        0.0000
     26 H           6.8787    3.7641   -0.4694 H       1  UNL1        0.0000
     27 H           8.8114    6.2250    0.4718 H       1  UNL1        0.0000
     28 H           9.0855    4.5654   -0.0221 H       1  UNL1        0.0000
     29 H           9.9527    3.9236    2.1151 H       1  UNL1        0.0000
     30 H          10.8120    5.3623    1.5266 H       1  UNL1        0.0000
     31 H          11.5660    5.6075    3.8387 H       1  UNL1        0.0000
     32 H          10.5991    4.1889    4.2920 H       1  UNL1        0.0000
     33 H          10.3532    5.7299    5.1317 H       1  UNL1        0.0000
     34 H           9.5592    7.4124    2.0592 H       1  UNL1        0.0000
     35 H          10.2651    7.5793    3.6522 H       1  UNL1        0.0000
     36 H           8.1199    7.5292    4.7477 H       1  UNL1        0.0000
     37 H           8.1346    8.7603    3.4720 H       1  UNL1        0.0000
     38 H           3.8125    8.1394    2.3454 H       1  UNL1        0.0000
     39 H           4.8834    9.3824    2.9726 H       1  UNL1        0.0000
     40 H           3.5242    8.8302    3.9209 H       1  UNL1        0.0000
     41 H           4.8486    8.0223    6.3478 H       1  UNL1        0.0000
     42 H           6.2122    8.9138    5.7168 H       1  UNL1        0.0000
     43 H           6.4370    7.3013    6.3784 H       1  UNL1        0.0000
     44 H           3.1969    4.0540    2.5712 H       1  UNL1        0.0000
     45 H           2.4261    3.2592    3.9493 H       1  UNL1        0.0000
     46 H           4.1523    3.0060    3.6358 H       1  UNL1        0.0000
     47 H           4.5912    3.7187    6.0197 H       1  UNL1        0.0000
     48 H           2.8797    4.0868    6.3040 H       1  UNL1        0.0000
     49 H           4.1043    5.3383    6.5616 H       1  UNL1        0.0000
     50 H           2.6964    6.7811    5.0707 H       1  UNL1        0.0000
     51 H           1.5854    5.4611    4.6826 H       1  UNL1        0.0000
     52 H           2.4228    6.3317    3.3906 H       1  UNL1        0.0000
@<TRIPOS>BOND
     1    26     8    1
     2    23     7    1
     3    28     9    1
     4    27     9    1
     5     8    25    1
     6     8    24    1
     7     8     3    1
     8     9     3    1
     9     9    10    1
    10     7     3    1
    11     7    22    1
    12     7     6    1
    13    20     6    1
    14    21     6    1
    15    30    10    1
    16     6     2    1
    17    10    29    1
    18    10     4    1
    19    34    12    1
    20    38    14    1
    21    44    17    1
    22    39    14    1
    23    12     4    1
    24    12    35    1
    25    12    13    1
    26     2    13    1
    27     2     1    1
    28     4    11    1
    29    14    40    1
    30    14     1    1
    31    52    19    1
    32    37    13    1
    33    17    46    1
    34    17    45    1
    35    17    16    1
    36    13    36    1
    37    31    11    1
    38     5     1    1
    39     5    16    1
    40     1    15    1
    41    11    32    1
    42    11    33    1
    43    19    16    1
    44    19    51    1
    45    19    50    1
    46    16    18    1
    47    42    15    1
    48    15    41    1
    49    15    43    1
    50    18    47    1
    51    18    48    1
    52    18    49    1
