@<TRIPOS>MOLECULE
1,2,3,4
 84 88 0 0 0
SMALL
GASTEIGER

@<TRIPOS>ATOM
      1 N           2.5606    3.4109   -1.8131 N.ar    1  UNL1       -0.2472
      2 N           1.5163    2.8473    0.7791 N.2     1  UNL1       -0.2472
      3 N          -0.9439    1.8500   -0.4397 N.ar    1  UNL1       -0.2472
      4 N           0.0854    2.4654   -3.0312 N.2     1  UNL1       -0.2472
      5 C           2.9113    3.5069   -3.1257 C.ar    1  UNL1        0.0700
      6 C           4.3151    3.8471   -3.2482 C.ar    1  UNL1       -0.0170
      7 C           4.8060    3.9230   -1.9781 C.ar    1  UNL1       -0.0170
      8 C           3.6916    3.6541   -1.0937 C.ar    1  UNL1        0.0700
      9 C           3.7829    3.6023    0.2920 C.2     1  UNL1       -0.0103
     10 C           2.7683    3.2260    1.1638 C.2     1  UNL1        0.0700
     11 C           2.9164    3.0961    2.5978 C.2     1  UNL1       -0.0170
     12 C           1.7394    2.5862    3.0615 C.2     1  UNL1       -0.0170
     13 C           0.8812    2.4192    1.9061 C.2     1  UNL1        0.0700
     14 C          -0.3601    1.7929    1.9376 C.2     1  UNL1       -0.0103
     15 C          -1.1754    1.4899    0.8530 C.ar    1  UNL1        0.0700
     16 C          -2.3672    0.6676    0.9440 C.ar    1  UNL1       -0.0170
     17 C          -2.8452    0.5426   -0.3274 C.ar    1  UNL1       -0.0170
     18 C          -1.9344    1.2798   -1.1805 C.ar    1  UNL1        0.0700
     19 C          -2.0172    1.3194   -2.5670 C.2     1  UNL1       -0.0103
     20 C          -1.0743    1.8686   -3.4284 C.2     1  UNL1        0.0700
     21 C          -1.1402    1.8078   -4.8729 C.2     1  UNL1       -0.0170
     22 C           0.0139    2.3693   -5.3356 C.2     1  UNL1       -0.0170
     23 C           0.7813    2.7505   -4.1680 C.2     1  UNL1        0.0700
     24 C           2.0788    3.2498   -4.2093 C.2     1  UNL1       -0.0103
     25 C           5.0583    4.0082   -4.5334 C.3     1  UNL1       -0.0282
     26 C           5.4969    2.6517   -5.0915 C.3     1  UNL1       -0.0612
     27 C           6.1977    4.2491   -1.5463 C.3     1  UNL1       -0.0282
     28 C           6.3271    5.7262   -1.1660 C.3     1  UNL1       -0.0612
     29 C           4.1526    3.4193    3.3697 C.3     1  UNL1       -0.0282
     30 C           5.1293    2.2403    3.3640 C.3     1  UNL1       -0.0612
     31 C           1.3501    2.2899    4.4716 C.3     1  UNL1       -0.0282
     32 C           0.4303    3.3826    5.0231 C.3     1  UNL1       -0.0612
     33 C          -2.9037    0.0660    2.2014 C.3     1  UNL1       -0.0282
     34 C          -3.7075    1.0717    3.0290 C.3     1  UNL1       -0.0612
     35 C          -4.0627   -0.1827   -0.7953 C.3     1  UNL1       -0.0282
     36 C          -5.2299    0.7808   -1.0241 C.3     1  UNL1       -0.0612
     37 C          -2.2962    1.2861   -5.6593 C.3     1  UNL1       -0.0282
     38 C          -3.4220    2.3224   -5.7133 C.3     1  UNL1       -0.0612
     39 C           0.4615    2.5198   -6.7521 C.3     1  UNL1       -0.0282
     40 C           1.3421    1.3428   -7.1804 C.3     1  UNL1       -0.0612
     41 H           4.7431    3.8323    0.7294 H       1  UNL1        0.0660
     42 H          -0.6967    1.4462    2.9037 H       1  UNL1        0.0660
     43 H          -2.8645    0.8281   -3.0220 H       1  UNL1        0.0660
     44 H           2.5056    3.3985   -5.1905 H       1  UNL1        0.0660
     45 H           5.9396    4.6311   -4.3693 H       1  UNL1        0.0311
     46 H           4.4268    4.5172   -5.2650 H       1  UNL1        0.0311
     47 H           6.0254    2.7794   -6.0338 H       1  UNL1        0.0233
     48 H           6.1579    2.1508   -4.3877 H       1  UNL1        0.0233
     49 H           4.6342    2.0109   -5.2590 H       1  UNL1        0.0233
     50 H           6.8935    4.0252   -2.3572 H       1  UNL1        0.0311
     51 H           6.4764    3.6275   -0.6921 H       1  UNL1        0.0311
     52 H           7.3439    5.9498   -0.8500 H       1  UNL1        0.0233
     53 H           6.0796    6.3571   -2.0161 H       1  UNL1        0.0233
     54 H           5.6473    5.9729   -0.3539 H       1  UNL1        0.0233
     55 H           3.8868    3.6611    4.4005 H       1  UNL1        0.0311
     56 H           4.6377    4.2977    2.9386 H       1  UNL1        0.0311
     57 H           6.0323    2.4901    3.9171 H       1  UNL1        0.0233
     58 H           4.6697    1.3687    3.8247 H       1  UNL1        0.0233
     59 H           5.4048    1.9782    2.3450 H       1  UNL1        0.0233
     60 H           2.2446    2.2229    5.0932 H       1  UNL1        0.0311
     61 H           0.8401    1.3247    4.5223 H       1  UNL1        0.0311
     62 H           0.1381    3.1541    6.0458 H       1  UNL1        0.0233
     63 H           0.9410    4.3428    5.0137 H       1  UNL1        0.0233
     64 H          -0.4666    3.4712    4.4144 H       1  UNL1        0.0233
     65 H          -2.0748   -0.3157    2.8033 H       1  UNL1        0.0311
     66 H          -3.5458   -0.7817    1.9528 H       1  UNL1        0.0311
     67 H          -4.0393    0.6146    3.9591 H       1  UNL1        0.0233
     68 H          -3.1044    1.9453    3.2640 H       1  UNL1        0.0233
     69 H          -4.5832    1.4034    2.4771 H       1  UNL1        0.0233
     70 H          -4.3557   -0.9263   -0.0512 H       1  UNL1        0.0311
     71 H          -3.8431   -0.7140   -1.7247 H       1  UNL1        0.0311
     72 H          -6.1025    0.2412   -1.3863 H       1  UNL1        0.0233
     73 H          -5.4930    1.2825   -0.0963 H       1  UNL1        0.0233
     74 H          -4.9613    1.5407   -1.7542 H       1  UNL1        0.0233
     75 H          -2.6700    0.3647   -5.2063 H       1  UNL1        0.0311
     76 H          -1.9741    1.0479   -6.6745 H       1  UNL1        0.0311
     77 H          -4.2705    1.9355   -6.2735 H       1  UNL1        0.0233
     78 H          -3.7516    2.5798   -4.7097 H       1  UNL1        0.0233
     79 H          -3.0716    3.2317   -6.1963 H       1  UNL1        0.0233
     80 H           1.0176    3.4526   -6.8678 H       1  UNL1        0.0311
     81 H          -0.4109    2.5719   -7.4062 H       1  UNL1        0.0311
     82 H           1.6711    1.4671   -8.2099 H       1  UNL1        0.0233
     83 H           2.2185    1.2690   -6.5407 H       1  UNL1        0.0233
     84 H           0.7878    0.4101   -7.1030 H       1  UNL1        0.0233
@<TRIPOS>BOND
     1    82    40    1
     2    81    39    1
     3    40    84    1
     4    40    39    1
     5    40    83    1
     6    80    39    1
     7    39    22    1
     8    76    37    1
     9    77    38    1
    10    79    38    1
    11    47    26    1
    12    38    37    1
    13    38    78    1
    14    37    75    1
    15    37    21    1
    16    22    21    2
    17    22    23    1
    18    46    25    1
    19    49    26    1
    20    44    24    1
    21    26    25    1
    22    26    48    1
    23    21    20    1
    24    25    45    1
    25    25     6    1
    26    24    23    1
    27    24     5    2
    28    23     4    2
    29    20     4    1
    30    20    19    2
    31     6     5   ar
    32     6     7   ar
    33     5     1   ar
    34    43    19    1
    35    19    18    1
    36    50    27    1
    37    53    28    1
    38     7    27    1
    39     7     8   ar
    40     1     8   ar
    41    74    36    1
    42    71    35    1
    43    27    28    1
    44    27    51    1
    45    72    36    1
    46    18     3   ar
    47    18    17   ar
    48    28    52    1
    49    28    54    1
    50     8     9    2
    51    36    35    1
    52    36    73    1
    53    35    17    1
    54    35    70    1
    55     3    15   ar
    56    17    16   ar
    57     9    41    1
    58     9    10    1
    59     2    10    2
    60     2    13    1
    61    15    16   ar
    62    15    14    1
    63    16    33    1
    64    10    11    1
    65    13    14    2
    66    13    12    1
    67    14    42    1
    68    66    33    1
    69    33    65    1
    70    33    34    1
    71    59    30    1
    72    69    34    1
    73    11    12    2
    74    11    29    1
    75    56    29    1
    76    34    68    1
    77    34    67    1
    78    12    31    1
    79    30    29    1
    80    30    58    1
    81    30    57    1
    82    29    55    1
    83    64    32    1
    84    31    61    1
    85    31    32    1
    86    31    60    1
    87    63    32    1
    88    32    62    1
