@<TRIPOS>MOLECULE
4,5,6,7
 61 60 0 0 0
SMALL
GASTEIGER

@<TRIPOS>ATOM
      1 SI          3.8864    1.6599   -1.6480 Si      1  UNL1        0.0000
      2 SI          4.5269   -0.8437    3.4968 Si      1  UNL1        0.0000
      3 SI          0.9744    3.6512    2.9114 Si      1  UNL1        0.0000
      4 N           3.6178    2.4341   -0.0894 N.3     1  UNL1        0.0000
      5 N           2.4999    2.7734    2.9660 N.3     1  UNL1        0.0000
      6 N           4.6469    0.4096    2.2655 N.3     1  UNL1        0.0000
      7 N           5.1354    3.1525    2.1375 N.3     1  UNL1        0.0000
      8 C           5.9722    0.8683    1.9105 C.3     1  UNL1        0.0000
      9 C           6.2149    2.2557    2.5368 C.3     1  UNL1        0.0000
     10 C           4.0510    3.8075    0.0490 C.3     1  UNL1        0.0000
     11 C           5.3525    3.8489    0.8738 C.3     1  UNL1        0.0000
     12 C           3.4819    3.2092    3.9347 C.3     1  UNL1        0.0000
     13 C           4.6008    3.9839    3.2108 C.3     1  UNL1        0.0000
     14 C           5.7904   -0.5647    4.9046 C.3     1  UNL1        0.0000
     15 C           3.8599   -0.2231   -1.3241 C.3     1  UNL1        0.0000
     16 C           2.7631   -0.7188    4.2227 C.3     1  UNL1        0.0000
     17 C           5.5893    2.1313   -2.3801 C.3     1  UNL1        0.0000
     18 C           2.4779    2.1813   -2.8282 C.3     1  UNL1        0.0000
     19 C           0.2332    3.3356    1.1782 C.3     1  UNL1        0.0000
     20 C           4.8109   -2.5368    2.6589 C.3     1  UNL1        0.0000
     21 C          -0.1617    2.9651    4.2853 C.3     1  UNL1        0.0000
     22 C           1.2411    5.5322    3.1294 C.3     1  UNL1        0.0000
     23 H           6.7497    0.1812    2.2502 H       1  UNL1        0.0000
     24 H           6.0477    0.9486    0.8172 H       1  UNL1        0.0000
     25 H           7.2002    2.6404    2.2456 H       1  UNL1        0.0000
     26 H           6.1943    2.1401    3.6218 H       1  UNL1        0.0000
     27 H           4.2242    4.2832   -0.9183 H       1  UNL1        0.0000
     28 H           3.2745    4.3821    0.5728 H       1  UNL1        0.0000
     29 H           5.6783    4.8856    1.0242 H       1  UNL1        0.0000
     30 H           6.1227    3.3215    0.3083 H       1  UNL1        0.0000
     31 H           3.0444    3.8478    4.7047 H       1  UNL1        0.0000
     32 H           3.9162    2.3308    4.4321 H       1  UNL1        0.0000
     33 H           5.3777    4.2895    3.9224 H       1  UNL1        0.0000
     34 H           4.1573    4.8807    2.7748 H       1  UNL1        0.0000
     35 H           5.7485   -1.3957    5.6010 H       1  UNL1        0.0000
     36 H           6.8110   -0.5071    4.5397 H       1  UNL1        0.0000
     37 H           5.5895    0.3396    5.4726 H       1  UNL1        0.0000
     38 H           2.8454   -0.6043   -1.2783 H       1  UNL1        0.0000
     39 H           4.3499   -0.7378   -2.1440 H       1  UNL1        0.0000
     40 H           4.3739   -0.5083   -0.4071 H       1  UNL1        0.0000
     41 H           2.4197    0.3076    4.3446 H       1  UNL1        0.0000
     42 H           2.0428   -1.2473    3.6075 H       1  UNL1        0.0000
     43 H           2.7404   -1.1869    5.2013 H       1  UNL1        0.0000
     44 H           6.4175    1.7384   -1.7966 H       1  UNL1        0.0000
     45 H           5.6811    1.7221   -3.3808 H       1  UNL1        0.0000
     46 H           5.7218    3.2055   -2.4626 H       1  UNL1        0.0000
     47 H           2.5125    3.2441   -3.0496 H       1  UNL1        0.0000
     48 H           2.5563    1.6524   -3.7719 H       1  UNL1        0.0000
     49 H           1.4974    1.9659   -2.4116 H       1  UNL1        0.0000
     50 H          -0.4941    4.1076    0.9498 H       1  UNL1        0.0000
     51 H           0.9782    3.3448    0.3837 H       1  UNL1        0.0000
     52 H          -0.2944    2.3886    1.1386 H       1  UNL1        0.0000
     53 H           4.6425   -3.3437    3.3638 H       1  UNL1        0.0000
     54 H           4.1413   -2.6914    1.8168 H       1  UNL1        0.0000
     55 H           5.8277   -2.6367    2.2903 H       1  UNL1        0.0000
     56 H          -1.1499    3.4073    4.2188 H       1  UNL1        0.0000
     57 H          -0.2792    1.8869    4.2152 H       1  UNL1        0.0000
     58 H           0.2260    3.1877    5.2751 H       1  UNL1        0.0000
     59 H           1.7772    5.7717    4.0423 H       1  UNL1        0.0000
     60 H           1.7846    5.9753    2.2993 H       1  UNL1        0.0000
     61 H           0.2797    6.0319    3.1851 H       1  UNL1        0.0000
@<TRIPOS>BOND
     1    48    18    1
     2    45    17    1
     3    47    18    1
     4    18    49    1
     5    18     1    1
     6    46    17    1
     7    17    44    1
     8    17     1    1
     9    39    15    1
    10     1    15    1
    11     1     4    1
    12    15    38    1
    13    15    40    1
    14    27    10    1
    15     4    10    1
    16    10    28    1
    17    10    11    1
    18    30    11    1
    19    51    19    1
    20    24     8    1
    21    11    29    1
    22    11     7    1
    23    50    19    1
    24    52    19    1
    25    19     3    1
    26    54    20    1
    27     8    23    1
    28     8     6    1
    29     8     9    1
    30     7     9    1
    31     7    13    1
    32    25     9    1
    33     6     2    1
    34    55    20    1
    35    60    22    1
    36     9    26    1
    37    20    53    1
    38    20     2    1
    39    34    13    1
    40     3     5    1
    41     3    22    1
    42     3    21    1
    43     5    12    1
    44    22    61    1
    45    22    59    1
    46    13    33    1
    47    13    12    1
    48     2    16    1
    49     2    14    1
    50    42    16    1
    51    12    32    1
    52    12    31    1
    53    57    21    1
    54    56    21    1
    55    16    41    1
    56    16    43    1
    57    21    58    1
    58    36    14    1
    59    14    37    1
    60    14    35    1
