@<TRIPOS>MOLECULE
1,2,3,4
 70 72 0 0 0
SMALL
GASTEIGER

@<TRIPOS>ATOM
      1 N           3.7189    3.3129   35.6950 N.3     1  UNL1        0.0000
      2 N           3.2181    2.4729   37.9901 N.3     1  UNL1        0.0000
      3 N           2.1297    0.5781   38.1240 N.3     1  UNL1        0.0000
      4 N           2.2563    2.5474   34.2221 N.3     1  UNL1        0.0000
      5 SI          0.9256   -0.5080   38.7222 Si      1  UNL1        0.0000
      6 SI          1.0419    2.4426   32.9926 Si      1  UNL1        0.0000
      7 C           4.0789    4.2580   36.7337 C.3     1  UNL1        0.0000
      8 H           3.2211    4.9247   36.9402 H       1  UNL1        0.0000
      9 C           4.3183    3.3985   38.0031 C.3     1  UNL1        0.0000
     10 H           5.2561    2.8263   37.8584 H       1  UNL1        0.0000
     11 C           4.4967    4.3241   39.2084 C.3     1  UNL1        0.0000
     12 H           4.6592    3.7386   40.1154 H       1  UNL1        0.0000
     13 H           3.5905    4.9186   39.3413 H       1  UNL1        0.0000
     14 C           5.6982    5.2361   38.9580 C.3     1  UNL1        0.0000
     15 H           5.8171    5.9222   39.7992 H       1  UNL1        0.0000
     16 H           6.6017    4.6240   38.8984 H       1  UNL1        0.0000
     17 C           5.5458    6.0354   37.6645 C.3     1  UNL1        0.0000
     18 H           6.4413    6.6387   37.5006 H       1  UNL1        0.0000
     19 H           4.6974    6.7168   37.7597 H       1  UNL1        0.0000
     20 C           5.3110    5.1214   36.4628 C.3     1  UNL1        0.0000
     21 H           5.1544    5.7197   35.5633 H       1  UNL1        0.0000
     22 H           6.1762    4.4749   36.2983 H       1  UNL1        0.0000
     23 C           2.8881    1.4634   38.7567 C.3     1  UNL1        0.0000
     24 C           3.2951    1.3020   40.1740 C.ar    1  UNL1        0.0000
     25 C           4.1135    0.2457   40.5550 C.ar    1  UNL1        0.0000
     26 H           4.4501   -0.4601   39.8088 H       1  UNL1        0.0000
     27 C           4.4851    0.0964   41.8796 C.ar    1  UNL1        0.0000
     28 H           5.1254   -0.7240   42.1693 H       1  UNL1        0.0000
     29 C           4.0304    0.9910   42.8338 C.ar    1  UNL1        0.0000
     30 H           4.3157    0.8695   43.8682 H       1  UNL1        0.0000
     31 C           3.2025    2.0372   42.4609 C.ar    1  UNL1        0.0000
     32 H           2.8381    2.7295   43.2054 H       1  UNL1        0.0000
     33 C           2.8393    2.1974   41.1358 C.ar    1  UNL1        0.0000
     34 H           2.1873    3.0051   40.8368 H       1  UNL1        0.0000
     35 C           2.8275    3.6103   34.7653 C.3     1  UNL1        0.0000
     36 C           2.5079    5.0087   34.3798 C.ar    1  UNL1        0.0000
     37 C           1.3596    5.6305   34.8586 C.ar    1  UNL1        0.0000
     38 H           0.6885    5.0821   35.5052 H       1  UNL1        0.0000
     39 C           1.0904    6.9417   34.5048 C.ar    1  UNL1        0.0000
     40 H           0.1992    7.4233   34.8794 H       1  UNL1        0.0000
     41 C           1.9540    7.6340   33.6722 C.ar    1  UNL1        0.0000
     42 H           1.7376    8.6554   33.3951 H       1  UNL1        0.0000
     43 C           3.0958    7.0144   33.1924 C.ar    1  UNL1        0.0000
     44 H           3.7692    7.5504   32.5393 H       1  UNL1        0.0000
     45 C           3.3773    5.7077   33.5496 C.ar    1  UNL1        0.0000
     46 H           4.2642    5.2158   33.1747 H       1  UNL1        0.0000
     47 C           1.5808    0.9449   31.9227 C.3     1  UNL1        0.0000
     48 H           1.6095    0.0354   32.5141 H       1  UNL1        0.0000
     49 H           2.5610    1.0899   31.4761 H       1  UNL1        0.0000
     50 H           0.8743    0.7906   31.1146 H       1  UNL1        0.0000
     51 C          -0.6651    2.1313   33.7926 C.3     1  UNL1        0.0000
     52 H          -0.9995    2.9849   34.3769 H       1  UNL1        0.0000
     53 H          -0.6234    1.2755   34.4644 H       1  UNL1        0.0000
     54 H          -1.4186    1.9227   33.0394 H       1  UNL1        0.0000
     55 C           0.9191    3.9530   31.8242 C.3     1  UNL1        0.0000
     56 H           1.8949    4.2560   31.4590 H       1  UNL1        0.0000
     57 H           0.4696    4.8123   32.3093 H       1  UNL1        0.0000
     58 H           0.3096    3.7025   30.9631 H       1  UNL1        0.0000
     59 C          -0.7418   -0.0363   37.9165 C.3     1  UNL1        0.0000
     60 H          -0.6747   -0.0889   36.8319 H       1  UNL1        0.0000
     61 H          -1.0381    0.9776   38.1759 H       1  UNL1        0.0000
     62 H          -1.5363   -0.7070   38.2294 H       1  UNL1        0.0000
     63 C           1.4298   -2.2881   38.2142 C.3     1  UNL1        0.0000
     64 H           2.3802   -2.5916   38.6457 H       1  UNL1        0.0000
     65 H           1.4937   -2.3819   37.1343 H       1  UNL1        0.0000
     66 H           0.6799   -2.9921   38.5580 H       1  UNL1        0.0000
     67 C           0.6895   -0.4905   40.6206 C.3     1  UNL1        0.0000
     68 H           0.4727    0.5070   40.9880 H       1  UNL1        0.0000
     69 H           1.5685   -0.8498   41.1447 H       1  UNL1        0.0000
     70 H          -0.1417   -1.1306   40.8950 H       1  UNL1        0.0000
@<TRIPOS>BOND
     1    58    55    1
     2    50    47    1
     3    56    55    1
     4    49    47    1
     5    55    57    1
     6    55     6    1
     7    47    48    1
     8    47     6    1
     9    44    43    1
    10     6    51    1
    11     6     4    1
    12    54    51    1
    13    46    45    1
    14    43    45   ar
    15    43    41   ar
    16    42    41    1
    17    45    36   ar
    18    41    39   ar
    19    51    52    1
    20    51    53    1
    21     4    35    1
    22    36    35    1
    23    36    37   ar
    24    39    37   ar
    25    39    40    1
    26    35     1    1
    27    37    38    1
    28    21    20    1
    29     1     7    1
    30    22    20    1
    31    20     7    1
    32    20    17    1
    33     7     8    1
    34     7     9    1
    35    60    59    1
    36    65    63    1
    37    18    17    1
    38    17    19    1
    39    17    14    1
    40    10     9    1
    41    59    61    1
    42    59    62    1
    43    59     5    1
    44     2     9    1
    45     2    23    1
    46     9    11    1
    47     3     5    1
    48     3    23    1
    49    63    66    1
    50    63    64    1
    51    63     5    1
    52     5    67    1
    53    23    24    1
    54    16    14    1
    55    14    11    1
    56    14    15    1
    57    11    13    1
    58    11    12    1
    59    26    25    1
    60    24    25   ar
    61    24    33   ar
    62    25    27   ar
    63    67    70    1
    64    67    68    1
    65    67    69    1
    66    34    33    1
    67    33    31   ar
    68    27    28    1
    69    27    29   ar
    70    31    29   ar
    71    31    32    1
    72    29    30    1
