@<TRIPOS>MOLECULE
2,5,7,10
 64 66 0 0 0
SMALL
GASTEIGER

@<TRIPOS>ATOM
      1 SI         -3.9806   -3.1456   12.3710 Si      1  UNL1        0.0000
      2 N          -3.0781   -1.8324   13.0171 N.3     1  UNL1        0.0000
      3 C          -2.2802   -1.8295   14.0738 C.3     1  UNL1        0.0000
      4 SI         -3.9181    4.5522   12.6127 Si      1  UNL1        0.0000
      5 N          -1.7927   -0.6403   14.3625 N.pl3   1  UNL1        0.0000
      6 C          -2.0107   -3.0659   14.8468 C.ar    1  UNL1        0.0000
      7 N          -2.0406    1.8301   14.6289 N.pl3   1  UNL1        0.0000
      8 C          -2.9145   -3.4959   15.8106 C.ar    1  UNL1        0.0000
      9 H          -3.8041   -2.9127   15.9998 H       1  UNL1        0.0000
     10 N          -3.2916    3.1356   13.3644 N.3     1  UNL1        0.0000
     11 C          -2.6764   -4.6629   16.5150 C.ar    1  UNL1        0.0000
     12 H          -3.3811   -4.9924   17.2650 H       1  UNL1        0.0000
     13 C          -1.5390   -5.4101   16.2586 C.ar    1  UNL1        0.0000
     14 H          -1.3562   -6.3226   16.8069 H       1  UNL1        0.0000
     15 C          -0.6364   -4.9858   15.2971 C.ar    1  UNL1        0.0000
     16 H           0.2507   -5.5682   15.0951 H       1  UNL1        0.0000
     17 C          -0.8679   -3.8172   14.5944 C.ar    1  UNL1        0.0000
     18 H          -0.1668   -3.4781   13.8458 H       1  UNL1        0.0000
     19 C          -4.1970   -2.7107   10.5192 C.3     1  UNL1        0.0000
     20 H          -3.9251   -1.6754   10.3297 H       1  UNL1        0.0000
     21 H          -5.2174   -2.8633   10.1821 H       1  UNL1        0.0000
     22 H          -3.5600   -3.3327    9.8993 H       1  UNL1        0.0000
     23 C          -5.6882   -3.1882   13.2580 C.3     1  UNL1        0.0000
     24 H          -5.8896   -2.2325   13.7348 H       1  UNL1        0.0000
     25 H          -5.7066   -3.9492   14.0322 H       1  UNL1        0.0000
     26 H          -6.5019   -3.4037   12.5724 H       1  UNL1        0.0000
     27 C          -3.2467   -4.9090   12.4650 C.3     1  UNL1        0.0000
     28 H          -2.2217   -4.9244   12.1078 H       1  UNL1        0.0000
     29 H          -3.8188   -5.5976   11.8505 H       1  UNL1        0.0000
     30 H          -3.2442   -5.2960   13.4792 H       1  UNL1        0.0000
     31 C          -1.1188   -0.1522   15.4677 C.ar    1  UNL1        0.0000
     32 C          -1.2430    1.2698   15.6080 C.ar    1  UNL1        0.0000
     33 C          -0.6278    1.9018   16.6826 C.ar    1  UNL1        0.0000
     34 H          -0.7238    2.9691   16.8112 H       1  UNL1        0.0000
     35 C           0.1060    1.1631   17.5985 C.ar    1  UNL1        0.0000
     36 H           0.5809    1.6677   18.4274 H       1  UNL1        0.0000
     37 C           0.2314   -0.2071   17.4587 C.ar    1  UNL1        0.0000
     38 H           0.8072   -0.7736   18.1760 H       1  UNL1        0.0000
     39 C          -0.3789   -0.8664   16.4021 C.ar    1  UNL1        0.0000
     40 H          -0.2732   -1.9360   16.3045 H       1  UNL1        0.0000
     41 C          -4.4394    3.9660   10.8737 C.3     1  UNL1        0.0000
     42 H          -3.5976    3.5292   10.3452 H       1  UNL1        0.0000
     43 H          -4.8163    4.7901   10.2770 H       1  UNL1        0.0000
     44 H          -5.2203    3.2151   10.9310 H       1  UNL1        0.0000
     45 C          -5.4875    5.2143   13.5057 C.3     1  UNL1        0.0000
     46 H          -6.2620    4.4566   13.5896 H       1  UNL1        0.0000
     47 H          -5.9102    6.0485   12.9553 H       1  UNL1        0.0000
     48 H          -5.2601    5.5691   14.5061 H       1  UNL1        0.0000
     49 C          -2.7191    6.0300   12.4328 C.3     1  UNL1        0.0000
     50 H          -1.7454    5.6986   12.0858 H       1  UNL1        0.0000
     51 H          -2.5731    6.5475   13.3760 H       1  UNL1        0.0000
     52 H          -3.0951    6.7528   11.7154 H       1  UNL1        0.0000
     53 C          -2.4402    3.0603   14.3782 C.3     1  UNL1        0.0000
     54 C          -1.9987    4.2655   15.1197 C.ar    1  UNL1        0.0000
     55 C          -2.8346    4.8753   16.0472 C.ar    1  UNL1        0.0000
     56 H          -3.8051    4.4457   16.2518 H       1  UNL1        0.0000
     57 C          -2.4228    6.0186   16.7093 C.ar    1  UNL1        0.0000
     58 H          -3.0760    6.4872   17.4313 H       1  UNL1        0.0000
     59 C          -1.1767    6.5624   16.4471 C.ar    1  UNL1        0.0000
     60 H          -0.8583    7.4570   16.9618 H       1  UNL1        0.0000
     61 C          -0.3383    5.9557   15.5256 C.ar    1  UNL1        0.0000
     62 H           0.6348    6.3775   15.3216 H       1  UNL1        0.0000
     63 C          -0.7439    4.8103   14.8655 C.ar    1  UNL1        0.0000
     64 H          -0.0948    4.3285   14.1492 H       1  UNL1        0.0000
@<TRIPOS>BOND
     1    22    19    1
     2    21    19    1
     3    43    41    1
     4    20    19    1
     5    42    41    1
     6    19     1    1
     7    41    44    1
     8    41     4    1
     9    52    49    1
    10    29    27    1
    11    50    49    1
    12    28    27    1
    13     1    27    1
    14     1     2    1
    15     1    23    1
    16    49     4    1
    17    49    51    1
    18    27    30    1
    19    26    23    1
    20     4    10    1
    21     4    45    1
    22    47    45    1
    23     2     3    1
    24    23    24    1
    25    23    25    1
    26    10    53    1
    27    45    46    1
    28    45    48    1
    29    18    17    1
    30     3     5    1
    31     3     6    1
    32    64    63    1
    33     5    31    1
    34    53     7    1
    35    53    54    1
    36    17     6   ar
    37    17    15   ar
    38     7    32    1
    39     6     8   ar
    40    63    54   ar
    41    63    61   ar
    42    16    15    1
    43    54    55   ar
    44    15    13   ar
    45    62    61    1
    46    31    32   ar
    47    31    39   ar
    48    61    59   ar
    49    32    33   ar
    50     8     9    1
    51     8    11   ar
    52    55    56    1
    53    55    57   ar
    54    13    11   ar
    55    13    14    1
    56    40    39    1
    57    39    37   ar
    58    59    57   ar
    59    59    60    1
    60    11    12    1
    61    33    34    1
    62    33    35   ar
    63    57    58    1
    64    37    35   ar
    65    37    38    1
    66    35    36    1
