@<TRIPOS>MOLECULE
3,4,5,6
 63 64 0 0 0
SMALL
GASTEIGER

@<TRIPOS>ATOM
      1 SI          5.7080    4.3529   12.5334 Si      1  UNL1        0.0000
      2 SI          7.8408    3.2765    8.2163 Si      1  UNL1        0.0000
      3 N           4.6026    4.3741   11.2060 N.3     1  UNL1        0.0000
      4 N           2.8537    4.9869    9.9538 N.3     1  UNL1        0.0000
      5 N           6.1797    3.7411    8.2810 N.3     1  UNL1        0.0000
      6 N           4.2928    4.7620    7.6473 N.3     1  UNL1        0.0000
      7 C           3.7043    5.3020   10.9032 C.3     1  UNL1        0.0000
      8 C           5.6033    4.7880    7.6943 C.3     1  UNL1        0.0000
      9 C           2.0368    5.9918    9.3087 C.3     1  UNL1        0.0000
     10 H           2.3684    7.0075    9.5668 H       1  UNL1        0.0000
     11 H           0.9909    5.8881    9.6344 H       1  UNL1        0.0000
     12 C           2.0932    5.8023    7.7857 C.3     1  UNL1        0.0000
     13 H           1.4600    6.5554    7.3109 H       1  UNL1        0.0000
     14 H           1.7068    4.8076    7.5480 H       1  UNL1        0.0000
     15 C           3.5165    5.9091    7.2248 C.3     1  UNL1        0.0000
     16 H           3.4594    5.9429    6.1256 H       1  UNL1        0.0000
     17 H           3.9801    6.8495    7.5587 H       1  UNL1        0.0000
     18 C           3.6855    6.6120   11.6018 C.ar    1  UNL1        0.0000
     19 C           4.4791    7.6592   11.1471 C.ar    1  UNL1        0.0000
     20 H           5.1000    7.5137   10.2745 H       1  UNL1        0.0000
     21 C           4.4715    8.8758   11.8059 C.ar    1  UNL1        0.0000
     22 H           5.0918    9.6849   11.4479 H       1  UNL1        0.0000
     23 C           3.6727    9.0561   12.9227 C.ar    1  UNL1        0.0000
     24 H           3.6712   10.0047   13.4392 H       1  UNL1        0.0000
     25 C           2.8729    8.0191   13.3729 C.ar    1  UNL1        0.0000
     26 H           2.2452    8.1589   14.2410 H       1  UNL1        0.0000
     27 C           2.8729    6.8030   12.7125 C.ar    1  UNL1        0.0000
     28 H           2.2473    5.9923   13.0557 H       1  UNL1        0.0000
     29 C           6.4063    5.9124    7.1583 C.ar    1  UNL1        0.0000
     30 C           6.4871    6.1574    5.7929 C.ar    1  UNL1        0.0000
     31 H           5.9634    5.5103    5.1043 H       1  UNL1        0.0000
     32 C           7.2504    7.2100    5.3199 C.ar    1  UNL1        0.0000
     33 H           7.3193    7.3890    4.2566 H       1  UNL1        0.0000
     34 C           7.9247    8.0343    6.2054 C.ar    1  UNL1        0.0000
     35 H           8.5172    8.8574    5.8340 H       1  UNL1        0.0000
     36 C           7.8381    7.8011    7.5680 C.ar    1  UNL1        0.0000
     37 H           8.3614    8.4440    8.2610 H       1  UNL1        0.0000
     38 C           7.0853    6.7424    8.0430 C.ar    1  UNL1        0.0000
     39 H           7.0149    6.5447    9.1029 H       1  UNL1        0.0000
     40 C           4.8242    4.3030   14.2312 C.3     1  UNL1        0.0000
     41 H           4.4044    5.2699   14.4917 H       1  UNL1        0.0000
     42 H           5.5180    4.0225   15.0169 H       1  UNL1        0.0000
     43 H           4.0171    3.5767   14.2297 H       1  UNL1        0.0000
     44 C           6.9208    5.8386   12.5704 C.3     1  UNL1        0.0000
     45 H           7.3187    6.0593   11.5845 H       1  UNL1        0.0000
     46 H           7.7621    5.6323   13.2243 H       1  UNL1        0.0000
     47 H           6.4332    6.7370   12.9363 H       1  UNL1        0.0000
     48 C           6.6697    2.7321   12.2501 C.3     1  UNL1        0.0000
     49 H           6.0679    1.8736   12.5343 H       1  UNL1        0.0000
     50 H           7.5879    2.6955   12.8279 H       1  UNL1        0.0000
     51 H           6.9250    2.6161   11.1978 H       1  UNL1        0.0000
     52 C           8.6063    3.4724    6.4676 C.3     1  UNL1        0.0000
     53 H           7.9419    3.1126    5.6868 H       1  UNL1        0.0000
     54 H           9.5348    2.9161    6.3909 H       1  UNL1        0.0000
     55 H           8.8294    4.5125    6.2513 H       1  UNL1        0.0000
     56 C           7.7673    1.4136    8.6540 C.3     1  UNL1        0.0000
     57 H           6.7843    1.1401    9.0401 H       1  UNL1        0.0000
     58 H           8.5007    1.1573    9.4112 H       1  UNL1        0.0000
     59 H           7.9682    0.7855    7.7910 H       1  UNL1        0.0000
     60 C           9.0025    4.2025    9.4239 C.3     1  UNL1        0.0000
     61 H           9.2445    5.1971    9.0602 H       1  UNL1        0.0000
     62 H           9.9372    3.6620    9.5384 H       1  UNL1        0.0000
     63 H           8.5590    4.3037   10.4095 H       1  UNL1        0.0000
@<TRIPOS>BOND
     1    33    32    1
     2    31    30    1
     3    32    30   ar
     4    32    34   ar
     5    53    52    1
     6    30    29   ar
     7    35    34    1
     8    16    15    1
     9    34    36   ar
    10    55    52    1
    11    54    52    1
    12    52     2    1
    13    29     8    1
    14    29    38   ar
    15    15    17    1
    16    15     6    1
    17    15    12    1
    18    13    12    1
    19    14    12    1
    20    36    38   ar
    21    36    37    1
    22     6     8    1
    23     8     5    1
    24    12     9    1
    25    59    56    1
    26    38    39    1
    27     2     5    1
    28     2    56    1
    29     2    60    1
    30    56    57    1
    31    56    58    1
    32    61    60    1
    33     9    10    1
    34     9    11    1
    35     9     4    1
    36    60    62    1
    37    60    63    1
    38     4     7    1
    39    20    19    1
    40     7     3    1
    41     7    18    1
    42    19    18   ar
    43    19    21   ar
    44    51    48    1
    45     3     1    1
    46    22    21    1
    47    45    44    1
    48    18    27   ar
    49    21    23   ar
    50    48     1    1
    51    48    49    1
    52    48    50    1
    53     1    44    1
    54     1    40    1
    55    44    47    1
    56    44    46    1
    57    27    28    1
    58    27    25   ar
    59    23    25   ar
    60    23    24    1
    61    25    26    1
    62    43    40    1
    63    40    41    1
    64    40    42    1
