@<TRIPOS>MOLECULE
1,4,22,23
 61 60 0 0 0
SMALL
GASTEIGER

@<TRIPOS>ATOM
      1 N           2.3404    2.3375    2.3383 N.3     1  UNL1        0.0000
      2 C           0.9775    2.4377    2.8545 C.3     1  UNL1        0.0000
      3 C           0.6630    3.9056    3.1609 C.3     1  UNL1        0.0000
      4 N           1.8572    4.5610    3.6444 N.3     1  UNL1        0.0000
      5 SI          1.8574    6.2900    3.8578 Si      1  UNL1        0.0000
      6 C           3.2781    6.9914    2.7778 C.3     1  UNL1        0.0000
      7 C           0.2076    7.0271    3.2218 C.3     1  UNL1        0.0000
      8 C           2.0310    6.7865    5.6944 C.3     1  UNL1        0.0000
      9 H           0.2489    2.0121    2.1474 H       1  UNL1        0.0000
     10 H           0.9387    1.8733    3.7893 H       1  UNL1        0.0000
     11 H          -0.1395    3.9467    3.9110 H       1  UNL1        0.0000
     12 H           0.2756    4.4062    2.2614 H       1  UNL1        0.0000
     13 H           4.0305    7.4579    3.4047 H       1  UNL1        0.0000
     14 H           2.9335    7.7362    2.0665 H       1  UNL1        0.0000
     15 H           3.7684    6.1866    2.2251 H       1  UNL1        0.0000
     16 H           0.1916    8.0995    3.3802 H       1  UNL1        0.0000
     17 H          -0.6455    6.6075    3.7440 H       1  UNL1        0.0000
     18 H           0.0643    6.8538    2.1599 H       1  UNL1        0.0000
     19 H           2.9737    6.4308    6.0976 H       1  UNL1        0.0000
     20 H           1.2284    6.3868    6.3075 H       1  UNL1        0.0000
     21 H           2.0162    7.8671    5.7942 H       1  UNL1        0.0000
     22 N           3.6427    1.8554    4.5631 N.3     1  UNL1        0.0000
     23 N           4.5626    3.6451    1.8532 N.3     1  UNL1        0.0000
     24 C           2.8561    0.9746    2.4387 C.3     1  UNL1        0.0000
     25 C           2.4396    2.8527    0.9751 C.3     1  UNL1        0.0000
     26 C           3.1627    0.6604    3.9068 C.3     1  UNL1        0.0000
     27 SI          3.8523    1.8567    6.2925 Si      1  UNL1        0.0000
     28 C           3.9072    3.1599    0.6597 C.3     1  UNL1        0.0000
     29 SI          6.2916    3.8577    1.8536 Si      1  UNL1        0.0000
     30 H           2.1487    0.2460    2.0136 H       1  UNL1        0.0000
     31 H           3.7906    0.9354    1.8740 H       1  UNL1        0.0000
     32 H           2.0142    2.1448    0.2472 H       1  UNL1        0.0000
     33 H           1.8747    3.7872    0.9358 H       1  UNL1        0.0000
     34 H           3.9147   -0.1404    3.9480 H       1  UNL1        0.0000
     35 H           2.2639    0.2705    4.4068 H       1  UNL1        0.0000
     36 C           2.7751    3.2811    6.9904 C.3     1  UNL1        0.0000
     37 C           3.2099    0.2094    7.0299 C.3     1  UNL1        0.0000
     38 C           5.6889    2.0256    6.7910 C.3     1  UNL1        0.0000
     39 H           3.9475    3.9090   -0.1437 H       1  UNL1        0.0000
     40 H           4.4083    2.2602    0.2731 H       1  UNL1        0.0000
     41 C           6.9928    2.7797    3.2760 C.3     1  UNL1        0.0000
     42 C           7.0292    3.2187    0.2051 C.3     1  UNL1        0.0000
     43 C           6.7875    5.6949    2.0240 C.3     1  UNL1        0.0000
     44 H           3.4038    4.0347    7.4527 H       1  UNL1        0.0000
     45 H           2.0653    2.9398    7.7381 H       1  UNL1        0.0000
     46 H           2.2212    3.7688    6.1850 H       1  UNL1        0.0000
     47 H           3.3654    0.1944    8.1028 H       1  UNL1        0.0000
     48 H           3.7311   -0.6456    6.6129 H       1  UNL1        0.0000
     49 H           2.1481    0.0686    6.8540 H       1  UNL1        0.0000
     50 H           6.0959    2.9658    6.4328 H       1  UNL1        0.0000
     51 H           6.2996    1.2195    6.3945 H       1  UNL1        0.0000
     52 H           5.7874    2.0138    7.8717 H       1  UNL1        0.0000
     53 H           7.4623    3.4073    4.0260 H       1  UNL1        0.0000
     54 H           7.7352    2.0656    2.9319 H       1  UNL1        0.0000
     55 H           6.1876    2.2303    3.7693 H       1  UNL1        0.0000
     56 H           8.1017    3.3769    0.1894 H       1  UNL1        0.0000
     57 H           6.6101    3.7395   -0.6491 H       1  UNL1        0.0000
     58 H           6.8558    2.1566    0.0635 H       1  UNL1        0.0000
     59 H           6.4320    6.0996    2.9661 H       1  UNL1        0.0000
     60 H           6.3869    6.3064    1.2205 H       1  UNL1        0.0000
     61 H           7.8680    5.7953    2.0083 H       1  UNL1        0.0000
@<TRIPOS>BOND
     1    57    42    1
     2    39    28    1
     3    58    42    1
     4    56    42    1
     5    42    29    1
     6    32    25    1
     7    40    28    1
     8    28    25    1
     9    28    23    1
    10    33    25    1
    11    25     1    1
    12    60    43    1
    13    23    29    1
    14    29    43    1
    15    29    41    1
    16    31    24    1
    17    61    43    1
    18    30    24    1
    19    43    59    1
    20    14     6    1
    21     9     2    1
    22    18     7    1
    23    15     6    1
    24    12     3    1
    25     1    24    1
    26     1     2    1
    27    24    26    1
    28     6    13    1
    29     6     5    1
    30     2     3    1
    31     2    10    1
    32    54    41    1
    33     3     4    1
    34     3    11    1
    35     7    16    1
    36     7    17    1
    37     7     5    1
    38    41    55    1
    39    41    53    1
    40     4     5    1
    41     5     8    1
    42    26    34    1
    43    26    35    1
    44    26    22    1
    45    22    27    1
    46     8    21    1
    47     8    19    1
    48     8    20    1
    49    46    36    1
    50    27    38    1
    51    27    36    1
    52    27    37    1
    53    51    38    1
    54    50    38    1
    55    48    37    1
    56    38    52    1
    57    49    37    1
    58    36    44    1
    59    36    45    1
    60    37    47    1
