@<TRIPOS>MOLECULE
4,5,6,7
 61 60 0 0 0
SMALL
GASTEIGER

@<TRIPOS>ATOM
      1 SI          2.2108    5.6170   -0.3234 Si      1  UNL1        0.0000
      2 SI          1.2426    0.1696   -0.8361 Si      1  UNL1        0.0000
      3 SI          6.2619    2.1191   -0.3165 Si      1  UNL1        0.0000
      4 N           2.9238    2.4602    2.3407 N.3     1  UNL1        0.0000
      5 N           2.0578    4.0029    0.2749 N.3     1  UNL1        0.0000
      6 N           2.4348    0.8907    0.1910 N.3     1  UNL1        0.0000
      7 N           4.8824    2.8087    0.4668 N.3     1  UNL1        0.0000
      8 C           1.1576    3.7654    1.3684 C.3     1  UNL1        0.0000
      9 C           1.9761    3.5157    2.6420 C.3     1  UNL1        0.0000
     10 C           2.8574    0.2490    1.4014 C.3     1  UNL1        0.0000
     11 C           2.4338    1.1195    2.5922 C.3     1  UNL1        0.0000
     12 C           5.0052    3.4999    1.7169 C.3     1  UNL1        0.0000
     13 C           4.2736    2.7069    2.8085 C.3     1  UNL1        0.0000
     14 C           2.4266    6.8814    1.1144 C.3     1  UNL1        0.0000
     15 C           0.6180    6.1684   -1.2527 C.3     1  UNL1        0.0000
     16 C           3.7633    5.7333   -1.4236 C.3     1  UNL1        0.0000
     17 C           0.1712   -1.0914    0.1389 C.3     1  UNL1        0.0000
     18 C           2.0437   -0.7840   -2.2953 C.3     1  UNL1        0.0000
     19 C           0.0853    1.5446   -1.4973 C.3     1  UNL1        0.0000
     20 C           6.8146    3.1819   -1.8150 C.3     1  UNL1        0.0000
     21 C           7.7640    2.0087    0.8737 C.3     1  UNL1        0.0000
     22 C           5.8315    0.3284   -0.8523 C.3     1  UNL1        0.0000
     23 H           0.5424    2.8775    1.1546 H       1  UNL1        0.0000
     24 H           0.4722    4.6078    1.5312 H       1  UNL1        0.0000
     25 H           2.5180    4.4352    2.8820 H       1  UNL1        0.0000
     26 H           1.3262    3.2647    3.4967 H       1  UNL1        0.0000
     27 H           3.9536    0.1447    1.4031 H       1  UNL1        0.0000
     28 H           2.4291   -0.7545    1.5117 H       1  UNL1        0.0000
     29 H           1.3397    1.1340    2.6278 H       1  UNL1        0.0000
     30 H           2.8051    0.7068    3.5452 H       1  UNL1        0.0000
     31 H           4.5511    4.4999    1.6301 H       1  UNL1        0.0000
     32 H           6.0524    3.6379    2.0112 H       1  UNL1        0.0000
     33 H           4.7927    1.7513    2.9364 H       1  UNL1        0.0000
     34 H           4.2927    3.2417    3.7731 H       1  UNL1        0.0000
     35 H           3.3827    6.7712    1.6191 H       1  UNL1        0.0000
     36 H           2.3768    7.8971    0.7353 H       1  UNL1        0.0000
     37 H           1.6442    6.7789    1.8612 H       1  UNL1        0.0000
     38 H           0.1603    5.3470   -1.7970 H       1  UNL1        0.0000
     39 H          -0.1263    6.5528   -0.5609 H       1  UNL1        0.0000
     40 H           0.8347    6.9574   -1.9657 H       1  UNL1        0.0000
     41 H           4.5015    4.9972   -1.1123 H       1  UNL1        0.0000
     42 H           3.5272    5.5418   -2.4643 H       1  UNL1        0.0000
     43 H           4.2091    6.7210   -1.3651 H       1  UNL1        0.0000
     44 H           0.7265   -1.9954    0.3677 H       1  UNL1        0.0000
     45 H          -0.1964   -0.6814    1.0750 H       1  UNL1        0.0000
     46 H          -0.6913   -1.3852   -0.4493 H       1  UNL1        0.0000
     47 H           2.5674   -0.1031   -2.9595 H       1  UNL1        0.0000
     48 H           2.7581   -1.5260   -1.9493 H       1  UNL1        0.0000
     49 H           1.2896   -1.3022   -2.8793 H       1  UNL1        0.0000
     50 H           0.5749    2.5115   -1.3972 H       1  UNL1        0.0000
     51 H          -0.1328    1.3865   -2.5481 H       1  UNL1        0.0000
     52 H          -0.8635    1.5799   -0.9692 H       1  UNL1        0.0000
     53 H           7.2636    4.1181   -1.4948 H       1  UNL1        0.0000
     54 H           7.5494    2.6586   -2.4186 H       1  UNL1        0.0000
     55 H           5.9687    3.4219   -2.4520 H       1  UNL1        0.0000
     56 H           8.1639    2.9904    1.1062 H       1  UNL1        0.0000
     57 H           7.5095    1.5224    1.8108 H       1  UNL1        0.0000
     58 H           8.5639    1.4364    0.4172 H       1  UNL1        0.0000
     59 H           4.7736    0.2657   -1.1033 H       1  UNL1        0.0000
     60 H           6.4108    0.0279   -1.7197 H       1  UNL1        0.0000
     61 H           6.0395   -0.3942   -0.0672 H       1  UNL1        0.0000
@<TRIPOS>BOND
     1    47    18    1
     2    49    18    1
     3    51    19    1
     4    42    16    1
     5    55    20    1
     6    54    20    1
     7    18    48    1
     8    18     2    1
     9    40    15    1
    10    20    53    1
    11    20     3    1
    12    38    15    1
    13    60    22    1
    14    19    50    1
    15    19    52    1
    16    19     2    1
    17    16    43    1
    18    16    41    1
    19    16     1    1
    20    15    39    1
    21    15     1    1
    22    59    22    1
    23    22     3    1
    24    22    61    1
    25     2    17    1
    26     2     6    1
    27    46    17    1
    28     1     5    1
    29     1    14    1
    30     3     7    1
    31     3    21    1
    32    17    44    1
    33    17    45    1
    34     6    10    1
    35     5     8    1
    36    58    21    1
    37     7    12    1
    38    36    14    1
    39    21    56    1
    40    21    57    1
    41    14    35    1
    42    14    37    1
    43    23     8    1
    44     8    24    1
    45     8     9    1
    46    10    27    1
    47    10    28    1
    48    10    11    1
    49    31    12    1
    50    12    32    1
    51    12    13    1
    52     4    11    1
    53     4     9    1
    54     4    13    1
    55    11    29    1
    56    11    30    1
    57     9    25    1
    58     9    26    1
    59    13    33    1
    60    13    34    1
