@<TRIPOS>MOLECULE
3,4,5,6
 61 60 0 0 0
SMALL
GASTEIGER

@<TRIPOS>ATOM
      1 SI          6.9400   17.2334   14.7625 Si      1  UNL1        0.0000
      2 SI         10.5259   19.5948   11.8462 Si      1  UNL1        0.0000
      3 N           8.4518   16.9359   13.9650 N.3     1  UNL1        0.0000
      4 N          10.1944   17.9042   11.6419 N.3     1  UNL1        0.0000
      5 N           7.9146   15.9232   11.1232 N.3     1  UNL1        0.0000
      6 N          10.1365   15.3597   12.5538 N.3     1  UNL1        0.0000
      7 C          10.0285   15.1039   13.9766 C.3     1  UNL1        0.0000
      8 H          10.9692   14.7212   14.4074 H       1  UNL1        0.0000
      9 H           9.2438   14.3612   14.1508 H       1  UNL1        0.0000
     10 C           9.5999   16.4164   14.6455 C.3     1  UNL1        0.0000
     11 H           9.4019   16.2365   15.7087 H       1  UNL1        0.0000
     12 H          10.4274   17.1416   14.5792 H       1  UNL1        0.0000
     13 C          11.4218   15.8809   12.1317 C.3     1  UNL1        0.0000
     14 H          12.0778   15.0966   11.7178 H       1  UNL1        0.0000
     15 H          11.9273   16.3334   12.9905 H       1  UNL1        0.0000
     16 C          11.1505   16.9850   11.1016 C.3     1  UNL1        0.0000
     17 H          12.0934   17.4786   10.8385 H       1  UNL1        0.0000
     18 H          10.7456   16.5295   10.1829 H       1  UNL1        0.0000
     19 C           9.6095   14.3043   11.7113 C.3     1  UNL1        0.0000
     20 H           9.7977   13.3004   12.1281 H       1  UNL1        0.0000
     21 H          10.0809   14.3606   10.7252 H       1  UNL1        0.0000
     22 C           8.1078   14.5661   11.5377 C.3     1  UNL1        0.0000
     23 H           7.6938   13.8522   10.8160 H       1  UNL1        0.0000
     24 H           7.5988   14.3983   12.5011 H       1  UNL1        0.0000
     25 C           6.5350   19.1034   14.7659 C.3     1  UNL1        0.0000
     26 H           7.1293   19.6598   15.4851 H       1  UNL1        0.0000
     27 H           5.4889   19.2825   14.9914 H       1  UNL1        0.0000
     28 H           6.7401   19.4973   13.7731 H       1  UNL1        0.0000
     29 C           6.9845   16.6124   16.5764 C.3     1  UNL1        0.0000
     30 H           7.2284   15.5569   16.6411 H       1  UNL1        0.0000
     31 H           6.0120   16.7485   17.0346 H       1  UNL1        0.0000
     32 H           7.7038   17.1612   17.1751 H       1  UNL1        0.0000
     33 C           5.5730   16.2674   13.8288 C.3     1  UNL1        0.0000
     34 H           5.7410   16.3831   12.7601 H       1  UNL1        0.0000
     35 H           4.5861   16.6546   14.0608 H       1  UNL1        0.0000
     36 H           5.5699   15.2063   14.0668 H       1  UNL1        0.0000
     37 C          10.2094   20.0486   13.6814 C.3     1  UNL1        0.0000
     38 H           9.2949   19.5553   14.0038 H       1  UNL1        0.0000
     39 H          10.0799   21.1186   13.8074 H       1  UNL1        0.0000
     40 H          11.0201   19.7401   14.3372 H       1  UNL1        0.0000
     41 C           9.4015   20.6452   10.7090 C.3     1  UNL1        0.0000
     42 H           9.7061   20.6059    9.6670 H       1  UNL1        0.0000
     43 H           9.3919   21.6869   11.0123 H       1  UNL1        0.0000
     44 H           8.3870   20.2606   10.7844 H       1  UNL1        0.0000
     45 C          12.3564   19.9920   11.4349 C.3     1  UNL1        0.0000
     46 H          13.0464   19.4095   12.0371 H       1  UNL1        0.0000
     47 H          12.5581   21.0382   11.6327 H       1  UNL1        0.0000
     48 H          12.5858   19.8104   10.3902 H       1  UNL1        0.0000
     49 SI          7.1059   16.3505    9.6490 Si      1  UNL1        0.0000
     50 C           6.7205   14.7921    8.5999 C.3     1  UNL1        0.0000
     51 H           7.6144   14.2180    8.3777 H       1  UNL1        0.0000
     52 H           6.2810   15.0858    7.6539 H       1  UNL1        0.0000
     53 H           6.0133   14.1349    9.0948 H       1  UNL1        0.0000
     54 C           5.4648   17.2618   10.0203 C.3     1  UNL1        0.0000
     55 H           4.6859   16.5938   10.3770 H       1  UNL1        0.0000
     56 H           5.0860   17.7725    9.1412 H       1  UNL1        0.0000
     57 H           5.6566   18.0068   10.7891 H       1  UNL1        0.0000
     58 C           8.2728   17.4852    8.6373 C.3     1  UNL1        0.0000
     59 H           8.7385   18.1927    9.3202 H       1  UNL1        0.0000
     60 H           7.7254   18.0475    7.8878 H       1  UNL1        0.0000
     61 H           9.0553   16.9331    8.1222 H       1  UNL1        0.0000
@<TRIPOS>BOND
     1    52    50    1
     2    60    58    1
     3    61    58    1
     4    51    50    1
     5    50    53    1
     6    50    49    1
     7    58    59    1
     8    58    49    1
     9    56    54    1
    10    49    54    1
    11    49     5    1
    12    42    41    1
    13    54    55    1
    14    54    57    1
    15    18    16    1
    16    48    45    1
    17    41    44    1
    18    41    43    1
    19    41     2    1
    20    21    19    1
    21    23    22    1
    22    17    16    1
    23    16     4    1
    24    16    13    1
    25     5    22    1
    26    45    47    1
    27    45     2    1
    28    45    46    1
    29    22    19    1
    30    22    24    1
    31     4     2    1
    32    19    20    1
    33    19     6    1
    34    14    13    1
    35     2    37    1
    36    13     6    1
    37    13    15    1
    38     6     7    1
    39    34    33    1
    40    37    39    1
    41    37    38    1
    42    37    40    1
    43    28    25    1
    44    33    35    1
    45    33    36    1
    46    33     1    1
    47     3    10    1
    48     3     1    1
    49     7     9    1
    50     7     8    1
    51     7    10    1
    52    12    10    1
    53    10    11    1
    54     1    25    1
    55     1    29    1
    56    25    27    1
    57    25    26    1
    58    29    30    1
    59    29    31    1
    60    29    32    1
