@<TRIPOS>MOLECULE
2,4,6,7
 61 60 0 0 0
SMALL
GASTEIGER

@<TRIPOS>ATOM
      1 SI         -1.4963    4.3858   12.7135 Si      1  UNL1        0.0000
      2 N          -2.8182    4.9573   11.7378 N.3     1  UNL1        0.0000
      3 SI         -6.5531    3.7878   11.1602 Si      1  UNL1        0.0000
      4 N          -5.7946    5.3363   11.3902 N.3     1  UNL1        0.0000
      5 SI         -5.2424    7.7230   14.4962 Si      1  UNL1        0.0000
      6 N          -4.2347    7.2060   13.1759 N.3     1  UNL1        0.0000
      7 N          -3.9264    7.1126   10.4529 N.3     1  UNL1        0.0000
      8 C          -1.3184    5.4839   14.2721 C.3     1  UNL1        0.0000
      9 H          -0.7043    6.3636   14.0971 H       1  UNL1        0.0000
     10 H          -0.8565    4.9214   15.0768 H       1  UNL1        0.0000
     11 H          -2.2992    5.8093   14.6142 H       1  UNL1        0.0000
     12 C           0.1484    4.5039   11.7332 C.3     1  UNL1        0.0000
     13 H           0.2040    3.7548   10.9505 H       1  UNL1        0.0000
     14 H           0.9873    4.3357   12.3987 H       1  UNL1        0.0000
     15 H           0.2860    5.4777   11.2734 H       1  UNL1        0.0000
     16 C          -1.7493    2.5501   13.2020 C.3     1  UNL1        0.0000
     17 H          -2.6845    2.4298   13.7427 H       1  UNL1        0.0000
     18 H          -0.9468    2.2069   13.8468 H       1  UNL1        0.0000
     19 H          -1.7768    1.8987   12.3324 H       1  UNL1        0.0000
     20 C          -2.7096    5.0305   10.3121 C.3     1  UNL1        0.0000
     21 H          -3.5581    4.4985    9.8564 H       1  UNL1        0.0000
     22 H          -1.7863    4.5693    9.9423 H       1  UNL1        0.0000
     23 C          -2.7537    6.5034    9.8700 C.3     1  UNL1        0.0000
     24 H          -1.8600    7.0030   10.2556 H       1  UNL1        0.0000
     25 H          -2.7446    6.5774    8.7699 H       1  UNL1        0.0000
     26 C          -7.5266    3.7670    9.5073 C.3     1  UNL1        0.0000
     27 H          -8.4251    4.3723    9.5624 H       1  UNL1        0.0000
     28 H          -7.8356    2.7544    9.2744 H       1  UNL1        0.0000
     29 H          -6.9321    4.1273    8.6735 H       1  UNL1        0.0000
     30 C          -5.2177    2.4194   11.0586 C.3     1  UNL1        0.0000
     31 H          -4.8261    2.2901   10.0528 H       1  UNL1        0.0000
     32 H          -5.6327    1.4664   11.3697 H       1  UNL1        0.0000
     33 H          -4.3895    2.6549   11.7245 H       1  UNL1        0.0000
     34 C          -7.7976    3.4198   12.5703 C.3     1  UNL1        0.0000
     35 H          -7.2933    3.4428   13.5330 H       1  UNL1        0.0000
     36 H          -8.2388    2.4357   12.4504 H       1  UNL1        0.0000
     37 H          -8.6070    4.1446   12.5967 H       1  UNL1        0.0000
     38 C          -6.2505    6.4971   10.6871 C.3     1  UNL1        0.0000
     39 H          -6.4506    7.3027   11.4094 H       1  UNL1        0.0000
     40 H          -7.1757    6.3078   10.1301 H       1  UNL1        0.0000
     41 C          -5.1575    6.9671    9.7117 C.3     1  UNL1        0.0000
     42 H          -5.0274    6.1960    8.9466 H       1  UNL1        0.0000
     43 H          -5.4605    7.9025    9.2129 H       1  UNL1        0.0000
     44 C          -5.3597    9.6376   14.5284 C.3     1  UNL1        0.0000
     45 H          -4.4325   10.0915   14.8616 H       1  UNL1        0.0000
     46 H          -6.1353    9.9477   15.2192 H       1  UNL1        0.0000
     47 H          -5.6036   10.0525   13.5554 H       1  UNL1        0.0000
     48 C          -4.5109    7.1579   16.1750 C.3     1  UNL1        0.0000
     49 H          -4.4160    6.0754   16.1988 H       1  UNL1        0.0000
     50 H          -5.1546    7.4529   16.9973 H       1  UNL1        0.0000
     51 H          -3.5281    7.5860   16.3539 H       1  UNL1        0.0000
     52 C          -7.0170    7.0426   14.2639 C.3     1  UNL1        0.0000
     53 H          -6.9830    6.0585   13.8000 H       1  UNL1        0.0000
     54 H          -7.6376    7.6918   13.6515 H       1  UNL1        0.0000
     55 H          -7.5078    6.9386   15.2259 H       1  UNL1        0.0000
     56 C          -3.2966    8.0992   12.5660 C.3     1  UNL1        0.0000
     57 H          -2.3020    7.6286   12.5561 H       1  UNL1        0.0000
     58 H          -3.2139    9.0479   13.1092 H       1  UNL1        0.0000
     59 C          -3.7254    8.3802   11.1154 C.3     1  UNL1        0.0000
     60 H          -4.6722    8.9279   11.1385 H       1  UNL1        0.0000
     61 H          -2.9753    9.0066   10.6050 H       1  UNL1        0.0000
@<TRIPOS>BOND
     1    29    26    1
     2    25    23    1
     3    42    41    1
     4    43    41    1
     5    28    26    1
     6    26    27    1
     7    26     3    1
     8    41     7    1
     9    41    38    1
    10    21    20    1
    11    23    24    1
    12    23    20    1
    13    23     7    1
    14    22    20    1
    15    31    30    1
    16    40    38    1
    17    20     2    1
    18     7    59    1
    19    61    59    1
    20    38     4    1
    21    38    39    1
    22    13    12    1
    23    30     3    1
    24    30    32    1
    25    30    33    1
    26    59    60    1
    27    59    56    1
    28     3     4    1
    29     3    34    1
    30    15    12    1
    31    12    14    1
    32    12     1    1
    33     2     1    1
    34    19    16    1
    35    36    34    1
    36    57    56    1
    37    56    58    1
    38    56     6    1
    39    34    37    1
    40    34    35    1
    41     1    16    1
    42     1     8    1
    43     6     5    1
    44    16    17    1
    45    16    18    1
    46    47    44    1
    47    54    52    1
    48    53    52    1
    49     9     8    1
    50    52     5    1
    51    52    55    1
    52     8    11    1
    53     8    10    1
    54     5    44    1
    55     5    48    1
    56    44    45    1
    57    44    46    1
    58    48    49    1
    59    48    51    1
    60    48    50    1
