@<TRIPOS>MOLECULE
4,5,6,7
 61 60 0 0 0
SMALL
GASTEIGER

@<TRIPOS>ATOM
      1 SI          2.6898   12.0679    8.0362 Si      1  UNL1        0.0000
      2 SI          5.5780   12.1193   12.5510 Si      1  UNL1        0.0000
      3 SI          0.2318   12.2977   13.3240 Si      1  UNL1        0.0000
      4 N           3.2818   12.8668    9.4399 N.3     1  UNL1        0.0000
      5 N           4.0606   12.8965   12.3687 N.3     1  UNL1        0.0000
      6 N           0.9830   12.8979   11.8991 N.3     1  UNL1        0.0000
      7 N           2.6250   14.8863   11.1487 N.3     1  UNL1        0.0000
      8 C           3.9887   14.1093    9.3253 C.3     1  UNL1        0.0000
      9 H           4.8836   14.0806    9.9646 H       1  UNL1        0.0000
     10 H           4.3162   14.3220    8.2996 H       1  UNL1        0.0000
     11 C           3.0505   15.2256    9.8033 C.3     1  UNL1        0.0000
     12 H           2.1793   15.2299    9.1397 H       1  UNL1        0.0000
     13 H           3.5317   16.2181    9.7540 H       1  UNL1        0.0000
     14 C           3.7826   14.0891   13.1235 C.3     1  UNL1        0.0000
     15 H           2.8615   13.9436   13.7113 H       1  UNL1        0.0000
     16 H           4.5873   14.3311   13.8297 H       1  UNL1        0.0000
     17 C           3.5833   15.2755   12.1701 C.3     1  UNL1        0.0000
     18 H           4.5468   15.4922   11.6988 H       1  UNL1        0.0000
     19 H           3.2606   16.1758   12.7175 H       1  UNL1        0.0000
     20 C           0.3949   13.9723   11.1588 C.3     1  UNL1        0.0000
     21 H           0.4302   13.7463   10.0826 H       1  UNL1        0.0000
     22 H          -0.6546   14.1656   11.4255 H       1  UNL1        0.0000
     23 C           1.2439   15.2244   11.4422 C.3     1  UNL1        0.0000
     24 H           1.1421   15.4575   12.5070 H       1  UNL1        0.0000
     25 H           0.8918   16.0931   10.8622 H       1  UNL1        0.0000
     26 C           0.8539   11.5559    8.2617 C.3     1  UNL1        0.0000
     27 H           0.6661   11.2833    9.2985 H       1  UNL1        0.0000
     28 H           0.6191   10.6976    7.6412 H       1  UNL1        0.0000
     29 H           0.1654   12.3495    7.9836 H       1  UNL1        0.0000
     30 C           2.7803   13.1624    6.4589 C.3     1  UNL1        0.0000
     31 H           2.3084   14.1300    6.6032 H       1  UNL1        0.0000
     32 H           2.2830   12.6781    5.6254 H       1  UNL1        0.0000
     33 H           3.8094   13.3380    6.1618 H       1  UNL1        0.0000
     34 C           3.7136   10.4890    7.6613 C.3     1  UNL1        0.0000
     35 H           4.7650   10.7176    7.5170 H       1  UNL1        0.0000
     36 H           3.3573    9.9926    6.7644 H       1  UNL1        0.0000
     37 H           3.6372    9.7885    8.4854 H       1  UNL1        0.0000
     38 C           5.7389   11.1560   14.2120 C.3     1  UNL1        0.0000
     39 H           5.7119   11.8362   15.0584 H       1  UNL1        0.0000
     40 H           6.6747   10.6083   14.2659 H       1  UNL1        0.0000
     41 H           4.9299   10.4443   14.3422 H       1  UNL1        0.0000
     42 C           5.8459   10.9461   11.0677 C.3     1  UNL1        0.0000
     43 H           4.9501   10.9263   10.4515 H       1  UNL1        0.0000
     44 H           6.0702    9.9357   11.3921 H       1  UNL1        0.0000
     45 H           6.6749   11.2754   10.4503 H       1  UNL1        0.0000
     46 C           7.0250   13.3918   12.5680 C.3     1  UNL1        0.0000
     47 H           7.0746   13.9571   11.6414 H       1  UNL1        0.0000
     48 H           7.9809   12.8949   12.6980 H       1  UNL1        0.0000
     49 H           6.9199   14.1037   13.3814 H       1  UNL1        0.0000
     50 C          -1.2153   11.1219   12.8578 C.3     1  UNL1        0.0000
     51 H          -2.0446   11.6704   12.4205 H       1  UNL1        0.0000
     52 H          -1.5962   10.5909   13.7243 H       1  UNL1        0.0000
     53 H          -0.8884   10.3864   12.1280 H       1  UNL1        0.0000
     54 C           1.5409   11.3629   14.3529 C.3     1  UNL1        0.0000
     55 H           2.4838   11.3269   13.8110 H       1  UNL1        0.0000
     56 H           1.2169   10.3475   14.5551 H       1  UNL1        0.0000
     57 H           1.7143   11.8404   15.3119 H       1  UNL1        0.0000
     58 C          -0.5170   13.6973   14.4103 C.3     1  UNL1        0.0000
     59 H           0.2504   14.3512   14.8157 H       1  UNL1        0.0000
     60 H          -1.0679   13.2837   15.2487 H       1  UNL1        0.0000
     61 H          -1.2080   14.3130   13.8417 H       1  UNL1        0.0000
@<TRIPOS>BOND
     1    32    30    1
     2    33    30    1
     3    30    31    1
     4    30     1    1
     5    36    34    1
     6    35    34    1
     7    28    26    1
     8    34     1    1
     9    34    37    1
    10    29    26    1
    11     1    26    1
    12     1     4    1
    13    26    27    1
    14    10     8    1
    15    12    11    1
    16     8     4    1
    17     8    11    1
    18     8     9    1
    19    13    11    1
    20    11     7    1
    21    21    20    1
    22    45    42    1
    23    43    42    1
    24    25    23    1
    25    42    44    1
    26    42     2    1
    27     7    23    1
    28     7    17    1
    29    20    22    1
    30    20    23    1
    31    20     6    1
    32    23    24    1
    33    47    46    1
    34    18    17    1
    35     6     3    1
    36    53    50    1
    37    17    19    1
    38    17    14    1
    39     5     2    1
    40     5    14    1
    41    51    50    1
    42     2    46    1
    43     2    38    1
    44    46    48    1
    45    46    49    1
    46    50     3    1
    47    50    52    1
    48    14    15    1
    49    14    16    1
    50     3    54    1
    51     3    58    1
    52    55    54    1
    53    61    58    1
    54    38    40    1
    55    38    41    1
    56    38    39    1
    57    54    56    1
    58    54    57    1
    59    58    59    1
    60    58    60    1
