@<TRIPOS>MOLECULE
4,5,6,7
 61 60 0 0 0
SMALL
GASTEIGER

@<TRIPOS>ATOM
      1 SI         10.8354    3.0068   10.9052 Si      1  UNL1        0.0000
      2 SI         13.6350   -0.5957   13.9993 Si      1  UNL1        0.0000
      3 SI          8.3675   -0.5499   14.9975 Si      1  UNL1        0.0000
      4 N          11.6080    2.5927   12.3990 N.3     1  UNL1        0.0000
      5 N          12.2732    0.3077   14.5697 N.3     1  UNL1        0.0000
      6 N           9.1168    0.9295   14.4763 N.3     1  UNL1        0.0000
      7 N          11.0514    2.6938   15.0646 N.3     1  UNL1        0.0000
      8 C           8.6743    2.1989   14.9965 C.3     1  UNL1        0.0000
      9 C           9.8148    2.7642   15.8451 C.3     1  UNL1        0.0000
     10 C          12.1786    2.3047   15.9172 C.3     1  UNL1        0.0000
     11 C          12.2507    0.7807   15.9331 C.3     1  UNL1        0.0000
     12 C          11.3311    3.9461   14.3700 C.3     1  UNL1        0.0000
     13 C          11.3208    1.8059    9.5017 C.3     1  UNL1        0.0000
     14 C           8.9354    3.0440   11.2191 C.3     1  UNL1        0.0000
     15 C          11.3172    4.7645   10.3096 C.3     1  UNL1        0.0000
     16 C          15.1771   -0.2403   15.0841 C.3     1  UNL1        0.0000
     17 C          13.3685   -2.4928   14.0791 C.3     1  UNL1        0.0000
     18 C          12.2388    3.6266   13.1808 C.3     1  UNL1        0.0000
     19 C          14.0351   -0.0080   12.2247 C.3     1  UNL1        0.0000
     20 C           7.3210   -0.2622   16.5806 C.3     1  UNL1        0.0000
     21 C           9.7118   -1.8464   15.4105 C.3     1  UNL1        0.0000
     22 C           7.1841   -1.2418   13.6606 C.3     1  UNL1        0.0000
     23 H           8.4492    2.8908   14.1694 H       1  UNL1        0.0000
     24 H           7.7698    2.1187   15.6091 H       1  UNL1        0.0000
     25 H           9.9112    2.1209   16.7248 H       1  UNL1        0.0000
     26 H           9.6105    3.7899   16.1837 H       1  UNL1        0.0000
     27 H          13.1093    2.6743   15.4792 H       1  UNL1        0.0000
     28 H          12.0793    2.7287   16.9270 H       1  UNL1        0.0000
     29 H          11.3640    0.3718   16.4458 H       1  UNL1        0.0000
     30 H          13.1335    0.4648   16.4963 H       1  UNL1        0.0000
     31 H          10.3919    4.3447   13.9718 H       1  UNL1        0.0000
     32 H          11.7771    4.6936   15.0453 H       1  UNL1        0.0000
     33 H          11.7184    0.8779    9.9033 H       1  UNL1        0.0000
     34 H          10.4576    1.5515    8.8964 H       1  UNL1        0.0000
     35 H          12.0702    2.2389    8.8475 H       1  UNL1        0.0000
     36 H           8.6850    2.2736   11.9543 H       1  UNL1        0.0000
     37 H           8.5974    4.0056   11.6005 H       1  UNL1        0.0000
     38 H           8.3711    2.8387   10.3155 H       1  UNL1        0.0000
     39 H          12.3919    4.8660   10.1984 H       1  UNL1        0.0000
     40 H          10.8721    4.9604    9.3404 H       1  UNL1        0.0000
     41 H          10.9750    5.5420   10.9860 H       1  UNL1        0.0000
     42 H          15.0915   -0.6927   16.0665 H       1  UNL1        0.0000
     43 H          16.0621   -0.6581   14.6172 H       1  UNL1        0.0000
     44 H          15.3508    0.8228   15.2191 H       1  UNL1        0.0000
     45 H          12.5017   -2.7933   13.4986 H       1  UNL1        0.0000
     46 H          14.2319   -3.0205   13.6854 H       1  UNL1        0.0000
     47 H          13.2137   -2.8319   15.0995 H       1  UNL1        0.0000
     48 H          13.2185    3.2665   13.5337 H       1  UNL1        0.0000
     49 H          12.4173    4.5403   12.6041 H       1  UNL1        0.0000
     50 H          15.0860    0.2347   12.0956 H       1  UNL1        0.0000
     51 H          13.7866   -0.7764   11.5005 H       1  UNL1        0.0000
     52 H          13.4417    0.8742   11.9801 H       1  UNL1        0.0000
     53 H           7.8781    0.2505   17.3593 H       1  UNL1        0.0000
     54 H           6.4270    0.3172   16.3732 H       1  UNL1        0.0000
     55 H           6.9982   -1.2148   16.9860 H       1  UNL1        0.0000
     56 H           9.3733   -2.8414   15.1425 H       1  UNL1        0.0000
     57 H          10.6155   -1.6360   14.8414 H       1  UNL1        0.0000
     58 H           9.9679   -1.8643   16.4663 H       1  UNL1        0.0000
     59 H           6.6446   -2.1056   14.0356 H       1  UNL1        0.0000
     60 H           6.4493   -0.5077   13.3422 H       1  UNL1        0.0000
     61 H           7.7413   -1.5554   12.7826 H       1  UNL1        0.0000
@<TRIPOS>BOND
     1    35    13    1
     2    34    13    1
     3    40    15    1
     4    13    33    1
     5    13     1    1
     6    39    15    1
     7    15     1    1
     8    15    41    1
     9    38    14    1
    10     1    14    1
    11     1     4    1
    12    14    37    1
    13    14    36    1
    14    51    19    1
    15    52    19    1
    16    50    19    1
    17    19     2    1
    18     4    18    1
    19    49    18    1
    20    61    22    1
    21    18    48    1
    22    18    12    1
    23    60    22    1
    24    45    17    1
    25    22    59    1
    26    22     3    1
    27    46    17    1
    28    31    12    1
    29     2    17    1
    30     2     5    1
    31     2    16    1
    32    17    47    1
    33    23     8    1
    34    12    32    1
    35    12     7    1
    36     6     8    1
    37     6     3    1
    38     5    11    1
    39    43    16    1
    40    57    21    1
    41     8    24    1
    42     8     9    1
    43     3    21    1
    44     3    20    1
    45     7     9    1
    46     7    10    1
    47    16    44    1
    48    16    42    1
    49    56    21    1
    50    21    58    1
    51    27    10    1
    52     9    26    1
    53     9    25    1
    54    10    11    1
    55    10    28    1
    56    11    29    1
    57    11    30    1
    58    54    20    1
    59    20    55    1
    60    20    53    1
