@<TRIPOS>MOLECULE
1,4,15,18
 61 60 0 0 0
SMALL
GASTEIGER

@<TRIPOS>ATOM
      1 N           0.5857    1.2511   12.2330 N.3     1  UNL1        0.0000
      2 C           2.0160    1.1385   11.9521 C.3     1  UNL1        0.0000
      3 C           2.7760    1.1242   13.2907 C.3     1  UNL1        0.0000
      4 N           2.2633    0.0680   14.1347 N.3     1  UNL1        0.0000
      5 SI          2.9346   -1.5010   14.0427 Si      1  UNL1        0.0000
      6 C           3.7226   -1.9843   12.3500 C.3     1  UNL1        0.0000
      7 C           4.3558   -1.7652   15.3089 C.3     1  UNL1        0.0000
      8 C           1.5270   -2.7583   14.3726 C.3     1  UNL1        0.0000
      9 C           0.1464    2.6404   12.3631 C.3     1  UNL1        0.0000
     10 C          -0.9530    2.7217   13.4388 C.3     1  UNL1        0.0000
     11 SI         -0.0109    3.1263   16.0245 Si      1  UNL1        0.0000
     12 C          -0.4471    4.9816   15.8227 C.3     1  UNL1        0.0000
     13 C           1.8878    3.0288   16.3285 C.3     1  UNL1        0.0000
     14 C          -0.9086    2.4682   17.5820 C.3     1  UNL1        0.0000
     15 N          -0.4751    2.1786   14.6851 N.3     1  UNL1        0.0000
     16 C          -0.2377    0.4705   11.3099 C.3     1  UNL1        0.0000
     17 C          -0.4465   -0.9385   11.8994 C.3     1  UNL1        0.0000
     18 N          -1.0455   -0.8463   13.2115 N.3     1  UNL1        0.0000
     19 SI         -2.7458   -0.8008   13.3834 Si      1  UNL1        0.0000
     20 C          -3.7350   -0.0603   11.9045 C.3     1  UNL1        0.0000
     21 C          -3.1280    0.2597   14.9307 C.3     1  UNL1        0.0000
     22 C          -3.4825   -2.5647   13.5944 C.3     1  UNL1        0.0000
     23 H           2.2086    0.1876   11.4522 H       1  UNL1        0.0000
     24 H           2.3664    1.9526   11.2996 H       1  UNL1        0.0000
     25 H           2.6416    2.0973   13.7850 H       1  UNL1        0.0000
     26 H           3.8477    1.0064   13.0839 H       1  UNL1        0.0000
     27 H           4.2908   -2.9041   12.4412 H       1  UNL1        0.0000
     28 H           4.4108   -1.2168   12.0090 H       1  UNL1        0.0000
     29 H           2.9853   -2.1378   11.5665 H       1  UNL1        0.0000
     30 H           4.6816   -2.8003   15.3201 H       1  UNL1        0.0000
     31 H           4.0500   -1.5036   16.3165 H       1  UNL1        0.0000
     32 H           5.2196   -1.1553   15.0626 H       1  UNL1        0.0000
     33 H           1.5336   -3.5690   13.6503 H       1  UNL1        0.0000
     34 H           0.5499   -2.2668   14.3317 H       1  UNL1        0.0000
     35 H           1.6378   -3.2107   15.3518 H       1  UNL1        0.0000
     36 H           0.9882    3.2474   12.7065 H       1  UNL1        0.0000
     37 H          -0.2051    3.0449   11.4015 H       1  UNL1        0.0000
     38 H          -1.8289    2.1469   13.0973 H       1  UNL1        0.0000
     39 H          -1.2627    3.7690   13.5392 H       1  UNL1        0.0000
     40 H          -1.5122    5.1184   15.6692 H       1  UNL1        0.0000
     41 H           0.0702    5.4315   14.9812 H       1  UNL1        0.0000
     42 H          -0.1722    5.5394   16.7106 H       1  UNL1        0.0000
     43 H           2.1286    3.1562   17.3787 H       1  UNL1        0.0000
     44 H           2.4395    3.7879   15.7802 H       1  UNL1        0.0000
     45 H           2.2591    2.0530   16.0199 H       1  UNL1        0.0000
     46 H          -0.4408    2.8213   18.4949 H       1  UNL1        0.0000
     47 H          -0.8807    1.3831   17.5837 H       1  UNL1        0.0000
     48 H          -1.9498    2.7740   17.6077 H       1  UNL1        0.0000
     49 H          -1.2193    0.9385   11.2193 H       1  UNL1        0.0000
     50 H           0.2153    0.4195   10.3086 H       1  UNL1        0.0000
     51 H           0.5305   -1.4424   11.9726 H       1  UNL1        0.0000
     52 H          -1.0649   -1.5189   11.2017 H       1  UNL1        0.0000
     53 H          -4.7959   -0.2564   12.0199 H       1  UNL1        0.0000
     54 H          -3.4271   -0.5106   10.9653 H       1  UNL1        0.0000
     55 H          -3.6155    1.0156   11.8096 H       1  UNL1        0.0000
     56 H          -3.6526   -0.3164   15.6849 H       1  UNL1        0.0000
     57 H          -3.7596    1.1087   14.6890 H       1  UNL1        0.0000
     58 H          -2.2012    0.6408   15.3700 H       1  UNL1        0.0000
     59 H          -4.5298   -2.5197   13.8747 H       1  UNL1        0.0000
     60 H          -2.9611   -3.1343   14.3574 H       1  UNL1        0.0000
     61 H          -3.4183   -3.1295   12.6693 H       1  UNL1        0.0000
@<TRIPOS>BOND
     1    50    16    1
     2    54    20    1
     3    52    17    1
     4    49    16    1
     5    24     2    1
     6    16    17    1
     7    16     1    1
     8    37     9    1
     9    23     2    1
    10    29     6    1
    11    55    20    1
    12    17    51    1
    13    17    18    1
    14    20    53    1
    15    20    19    1
    16     2     1    1
    17     2     3    1
    18    28     6    1
    19     1     9    1
    20     6    27    1
    21     6     5    1
    22     9    36    1
    23     9    10    1
    24    61    22    1
    25    26     3    1
    26    38    10    1
    27    18    19    1
    28     3    25    1
    29     3     4    1
    30    19    22    1
    31    19    21    1
    32    10    39    1
    33    10    15    1
    34    22    59    1
    35    22    60    1
    36    33     8    1
    37     5     4    1
    38     5     8    1
    39     5     7    1
    40    34     8    1
    41     8    35    1
    42    15    11    1
    43    57    21    1
    44    21    58    1
    45    21    56    1
    46    41    12    1
    47    32     7    1
    48     7    30    1
    49     7    31    1
    50    40    12    1
    51    44    13    1
    52    12    11    1
    53    12    42    1
    54    45    13    1
    55    11    13    1
    56    11    14    1
    57    13    43    1
    58    14    47    1
    59    14    48    1
    60    14    46    1
