@<TRIPOS>MOLECULE
1,4,11,18
 61 60 0 0 0
SMALL
GASTEIGER

@<TRIPOS>ATOM
      1 N          18.6971    8.8744    3.0122 N.3     1  UNL1        0.0000
      2 C          17.4022    8.4471    3.5293 C.3     1  UNL1        0.0000
      3 C          16.7398    7.5555    2.4630 C.3     1  UNL1        0.0000
      4 N          16.7476    8.2711    1.2128 N.3     1  UNL1        0.0000
      5 SI         15.3403    9.0500    0.6239 Si      1  UNL1        0.0000
      6 C          14.2805    9.8572    2.0237 C.3     1  UNL1        0.0000
      7 C          14.1489    7.8148   -0.2465 C.3     1  UNL1        0.0000
      8 C          15.8896   10.4515   -0.5583 C.3     1  UNL1        0.0000
      9 C          19.7950    7.9833    3.3688 C.3     1  UNL1        0.0000
     10 C          20.6699    7.7885    2.1167 C.3     1  UNL1        0.0000
     11 N          19.8152    7.3811    1.0310 N.3     1  UNL1        0.0000
     12 SI         19.7196    5.7426    0.5406 Si      1  UNL1        0.0000
     13 C          19.8144    4.5026    2.0198 C.3     1  UNL1        0.0000
     14 C          21.1836    5.2516   -0.6076 C.3     1  UNL1        0.0000
     15 C          18.0312    5.4781   -0.3211 C.3     1  UNL1        0.0000
     16 C          18.9858   10.2847    3.2454 C.3     1  UNL1        0.0000
     17 C          18.4779   11.0774    2.0269 C.3     1  UNL1        0.0000
     18 N          19.0325   10.4786    0.8398 N.3     1  UNL1        0.0000
     19 SI         20.3767   11.1747    0.0381 Si      1  UNL1        0.0000
     20 C          21.6723   11.9371    1.2527 C.3     1  UNL1        0.0000
     21 C          21.2610    9.7927   -0.9473 C.3     1  UNL1        0.0000
     22 C          19.8532   12.6337   -1.1022 C.3     1  UNL1        0.0000
     23 H          16.7636    9.3239    3.6670 H       1  UNL1        0.0000
     24 H          17.4964    7.9263    4.4955 H       1  UNL1        0.0000
     25 H          17.3148    6.6203    2.3646 H       1  UNL1        0.0000
     26 H          15.7235    7.2947    2.7902 H       1  UNL1        0.0000
     27 H          14.7902   10.6867    2.5071 H       1  UNL1        0.0000
     28 H          14.0295    9.1332    2.7932 H       1  UNL1        0.0000
     29 H          13.3454   10.2388    1.6275 H       1  UNL1        0.0000
     30 H          14.6769    7.2134   -0.9800 H       1  UNL1        0.0000
     31 H          13.3423    8.3310   -0.7576 H       1  UNL1        0.0000
     32 H          13.6958    7.1345    0.4694 H       1  UNL1        0.0000
     33 H          16.9806   10.4992   -0.5938 H       1  UNL1        0.0000
     34 H          15.5086   11.4208   -0.2500 H       1  UNL1        0.0000
     35 H          15.5305   10.2687   -1.5650 H       1  UNL1        0.0000
     36 H          19.3894    7.0053    3.6415 H       1  UNL1        0.0000
     37 H          20.3796    8.3701    4.2186 H       1  UNL1        0.0000
     38 H          21.1644    8.7418    1.8685 H       1  UNL1        0.0000
     39 H          21.4526    7.0482    2.3340 H       1  UNL1        0.0000
     40 H          20.7013    4.6771    2.6218 H       1  UNL1        0.0000
     41 H          19.8678    3.4797    1.6623 H       1  UNL1        0.0000
     42 H          18.9522    4.5712    2.6781 H       1  UNL1        0.0000
     43 H          22.1211    5.2214   -0.0593 H       1  UNL1        0.0000
     44 H          21.3015    5.9646   -1.4177 H       1  UNL1        0.0000
     45 H          21.0339    4.2703   -1.0470 H       1  UNL1        0.0000
     46 H          18.1687    5.1942   -1.3585 H       1  UNL1        0.0000
     47 H          17.4554    6.4063   -0.2995 H       1  UNL1        0.0000
     48 H          17.4468    4.6952    0.1537 H       1  UNL1        0.0000
     49 H          20.0687   10.4251    3.3002 H       1  UNL1        0.0000
     50 H          18.5370   10.6470    4.1839 H       1  UNL1        0.0000
     51 H          17.3773   11.0264    1.9947 H       1  UNL1        0.0000
     52 H          18.7645   12.1327    2.1368 H       1  UNL1        0.0000
     53 H          21.2057   12.6465    1.9298 H       1  UNL1        0.0000
     54 H          22.4413   12.4745    0.7080 H       1  UNL1        0.0000
     55 H          22.1703   11.1842    1.8583 H       1  UNL1        0.0000
     56 H          21.2229    9.9946   -2.0120 H       1  UNL1        0.0000
     57 H          20.7654    8.8354   -0.7686 H       1  UNL1        0.0000
     58 H          22.3078    9.6992   -0.6730 H       1  UNL1        0.0000
     59 H          19.5339   13.4935   -0.5197 H       1  UNL1        0.0000
     60 H          19.0267   12.3497   -1.7461 H       1  UNL1        0.0000
     61 H          20.6725   12.9584   -1.7359 H       1  UNL1        0.0000
@<TRIPOS>BOND
     1    56    21    1
     2    60    22    1
     3    61    22    1
     4    35     8    1
     5    44    14    1
     6    46    15    1
     7    22    59    1
     8    22    19    1
     9    45    14    1
    10    30     7    1
    11    21    57    1
    12    21    58    1
    13    21    19    1
    14    31     7    1
    15    14    43    1
    16    14    12    1
    17    33     8    1
    18     8    34    1
    19     8     5    1
    20    15    47    1
    21    15    48    1
    22    15    12    1
    23     7    32    1
    24     7     5    1
    25    19    18    1
    26    19    20    1
    27    12    11    1
    28    12    13    1
    29     5     4    1
    30     5     6    1
    31    54    20    1
    32    18    17    1
    33    11    10    1
    34     4     3    1
    35    20    55    1
    36    20    53    1
    37    29     6    1
    38    41    13    1
    39    38    10    1
    40    51    17    1
    41    13    40    1
    42    13    42    1
    43     6    27    1
    44     6    28    1
    45    17    52    1
    46    17    16    1
    47    10    39    1
    48    10     9    1
    49    25     3    1
    50     3    26    1
    51     3     2    1
    52     1    16    1
    53     1     9    1
    54     1     2    1
    55    16    49    1
    56    16    50    1
    57     9    36    1
    58     9    37    1
    59     2    23    1
    60     2    24    1
