@<TRIPOS>MOLECULE
4,5,6,7
 61 60 0 0 0
SMALL
GASTEIGER

@<TRIPOS>ATOM
      1 SI          3.5022   13.7394    2.8367 Si      1  UNL1        0.0000
      2 SI         -0.5693   11.4226    1.4999 Si      1  UNL1        0.0000
      3 SI         -1.7003   12.9712    7.0285 Si      1  UNL1        0.0000
      4 N           1.8340   14.0634    3.1994 N.3     1  UNL1        0.0000
      5 N          -0.8166   12.4240    2.8724 N.3     1  UNL1        0.0000
      6 N          -0.7004   13.8910    5.9524 N.3     1  UNL1        0.0000
      7 N          -0.8759   15.1900    3.5324 N.3     1  UNL1        0.0000
      8 C           1.2423   15.0412    2.3040 C.3     1  UNL1        0.0000
      9 C           0.2330   15.9606    2.9992 C.3     1  UNL1        0.0000
     10 C          -0.8020   15.3304    5.9538 C.3     1  UNL1        0.0000
     11 C          -1.5314   15.7917    4.6799 C.3     1  UNL1        0.0000
     12 C          -2.0541   13.1742    2.8786 C.3     1  UNL1        0.0000
     13 C          -1.7928   14.6527    2.5383 C.3     1  UNL1        0.0000
     14 C          -2.6292   11.5641    6.1178 C.3     1  UNL1        0.0000
     15 C          -3.0437   14.0620    7.8579 C.3     1  UNL1        0.0000
     16 C          -0.6548   12.2289    8.4552 C.3     1  UNL1        0.0000
     17 C           4.0720   11.9724    3.2932 C.3     1  UNL1        0.0000
     18 C           3.8582   13.9396    0.9574 C.3     1  UNL1        0.0000
     19 C           4.6485   15.0155    3.7103 C.3     1  UNL1        0.0000
     20 C          -1.7712    9.9199    1.4881 C.3     1  UNL1        0.0000
     21 C           1.2234   10.7921    1.4434 C.3     1  UNL1        0.0000
     22 C          -0.8907   12.3366   -0.1657 C.3     1  UNL1        0.0000
     23 H           2.0031   15.6863    1.8544 H       1  UNL1        0.0000
     24 H           0.7379   14.5103    1.4828 H       1  UNL1        0.0000
     25 H          -0.1088   16.7353    2.2912 H       1  UNL1        0.0000
     26 H           0.7413   16.4553    3.8321 H       1  UNL1        0.0000
     27 H          -1.3359   15.7131    6.8273 H       1  UNL1        0.0000
     28 H           0.2028   15.7735    5.9603 H       1  UNL1        0.0000
     29 H          -1.5530   16.8902    4.6181 H       1  UNL1        0.0000
     30 H          -2.5595   15.4258    4.7323 H       1  UNL1        0.0000
     31 H          -2.7830   12.7755    2.1643 H       1  UNL1        0.0000
     32 H          -2.5111   13.1332    3.8752 H       1  UNL1        0.0000
     33 H          -2.7354   15.2175    2.5073 H       1  UNL1        0.0000
     34 H          -1.3338   14.7003    1.5506 H       1  UNL1        0.0000
     35 H          -2.7565   10.7137    6.7798 H       1  UNL1        0.0000
     36 H          -3.6220   11.8728    5.8030 H       1  UNL1        0.0000
     37 H          -2.0906   11.2226    5.2400 H       1  UNL1        0.0000
     38 H          -2.6146   14.7673    8.5624 H       1  UNL1        0.0000
     39 H          -3.6222   14.6264    7.1330 H       1  UNL1        0.0000
     40 H          -3.7366   13.4376    8.4117 H       1  UNL1        0.0000
     41 H          -1.2803   11.6538    9.1306 H       1  UNL1        0.0000
     42 H           0.1197   11.5691    8.0791 H       1  UNL1        0.0000
     43 H          -0.1666   13.0025    9.0403 H       1  UNL1        0.0000
     44 H           3.2760   11.3850    3.7352 H       1  UNL1        0.0000
     45 H           4.4299   11.4433    2.4163 H       1  UNL1        0.0000
     46 H           4.8946   12.0117    3.9988 H       1  UNL1        0.0000
     47 H           4.8263   13.5189    0.7053 H       1  UNL1        0.0000
     48 H           3.1136   13.4353    0.3497 H       1  UNL1        0.0000
     49 H           3.8752   14.9823    0.6561 H       1  UNL1        0.0000
     50 H           4.6632   14.8697    4.7850 H       1  UNL1        0.0000
     51 H           5.6691   14.9206    3.3530 H       1  UNL1        0.0000
     52 H           4.3311   16.0376    3.5222 H       1  UNL1        0.0000
     53 H          -2.8085   10.2410    1.4681 H       1  UNL1        0.0000
     54 H          -1.6078    9.2946    0.6163 H       1  UNL1        0.0000
     55 H          -1.6428    9.2960    2.3672 H       1  UNL1        0.0000
     56 H           1.4121   10.0396    2.1982 H       1  UNL1        0.0000
     57 H           1.4374   10.3477    0.4773 H       1  UNL1        0.0000
     58 H           1.9199   11.6055    1.6039 H       1  UNL1        0.0000
     59 H          -0.1562   13.1158   -0.3498 H       1  UNL1        0.0000
     60 H          -0.8430   11.6439   -1.0000 H       1  UNL1        0.0000
     61 H          -1.8737   12.7983   -0.1867 H       1  UNL1        0.0000
@<TRIPOS>BOND
     1    60    22    1
     2    59    22    1
     3    61    22    1
     4    22     2    1
     5    48    18    1
     6    57    21    1
     7    54    20    1
     8    49    18    1
     9    47    18    1
    10    18     1    1
    11    21     2    1
    12    21    58    1
    13    21    56    1
    14    53    20    1
    15    24     8    1
    16    20     2    1
    17    20    55    1
    18     2     5    1
    19    34    13    1
    20    23     8    1
    21    31    12    1
    22    25     9    1
    23     8     9    1
    24     8     4    1
    25    45    17    1
    26    33    13    1
    27    13    12    1
    28    13     7    1
    29     1     4    1
    30     1    17    1
    31     1    19    1
    32     5    12    1
    33    12    32    1
    34     9     7    1
    35     9    26    1
    36    17    44    1
    37    17    46    1
    38    51    19    1
    39    52    19    1
    40     7    11    1
    41    19    50    1
    42    29    11    1
    43    11    30    1
    44    11    10    1
    45    37    14    1
    46    36    14    1
    47     6    10    1
    48     6     3    1
    49    10    28    1
    50    10    27    1
    51    14    35    1
    52    14     3    1
    53     3    15    1
    54     3    16    1
    55    39    15    1
    56    15    40    1
    57    15    38    1
    58    42    16    1
    59    16    43    1
    60    16    41    1
