@<TRIPOS>MOLECULE
4,5,6,7
 70 69 0 0 0
SMALL
GASTEIGER

@<TRIPOS>ATOM
      1 SI         -0.4416   17.0487    3.8764 Si      1  UNL1        0.0000
      2 SI          4.1129   15.4893    6.3031 Si      1  UNL1        0.0000
      3 SI          4.1098   16.6051    1.0206 Si      1  UNL1        0.0000
      4 N           0.6304   15.9543    3.0826 N.3     1  UNL1        0.0000
      5 N           2.7958   14.9853    5.3091 N.3     1  UNL1        0.0000
      6 N           3.7227   15.4287    2.2219 N.3     1  UNL1        0.0000
      7 N           1.9036   13.3566    3.0938 N.3     1  UNL1        0.0000
      8 C           0.3025   15.5778    1.7242 C.3     1  UNL1        0.0000
      9 C           0.0003   14.0809    1.5829 C.3     1  UNL1        0.0000
     10 C           1.2589   13.2406    1.7772 C.3     1  UNL1        0.0000
     11 C           0.0157   17.3560    5.7081 C.3     1  UNL1        0.0000
     12 C          -0.5246   18.7562    2.9957 C.3     1  UNL1        0.0000
     13 C          -2.2284   16.3264    3.8577 C.3     1  UNL1        0.0000
     14 C           1.6701   14.3631    5.9728 C.3     1  UNL1        0.0000
     15 C           1.4690   12.9028    5.5501 C.3     1  UNL1        0.0000
     16 C           0.9889   12.8061    4.1051 C.3     1  UNL1        0.0000
     17 C           5.5957   16.1678    5.3033 C.3     1  UNL1        0.0000
     18 C           4.7636   13.9873    7.3208 C.3     1  UNL1        0.0000
     19 C           3.5893   16.8348    7.5734 C.3     1  UNL1        0.0000
     20 C           4.7138   14.4081    2.4877 C.3     1  UNL1        0.0000
     21 C           4.2220   13.0003    2.1296 C.3     1  UNL1        0.0000
     22 C           3.1248   12.5375    3.0834 C.3     1  UNL1        0.0000
     23 C           2.6763   17.8203    0.6645 C.3     1  UNL1        0.0000
     24 C           5.6591   17.6419    1.4924 C.3     1  UNL1        0.0000
     25 C           4.5190   15.7172   -0.6406 C.3     1  UNL1        0.0000
     26 H          -0.5717   16.1333    1.3583 H       1  UNL1        0.0000
     27 H           1.1445   15.8098    1.0541 H       1  UNL1        0.0000
     28 H          -0.7946   13.8037    2.2773 H       1  UNL1        0.0000
     29 H          -0.3676   13.8892    0.5711 H       1  UNL1        0.0000
     30 H           1.9789   13.5758    1.0265 H       1  UNL1        0.0000
     31 H           1.0188   12.1779    1.5832 H       1  UNL1        0.0000
     32 H          -0.5506   16.7282    6.3898 H       1  UNL1        0.0000
     33 H           1.0761   17.2036    5.8906 H       1  UNL1        0.0000
     34 H          -0.2102   18.3865    5.9608 H       1  UNL1        0.0000
     35 H           0.4266   19.2746    3.0845 H       1  UNL1        0.0000
     36 H          -0.7486   18.6541    1.9369 H       1  UNL1        0.0000
     37 H          -1.2902   19.3912    3.4306 H       1  UNL1        0.0000
     38 H          -2.9180   17.0064    4.3451 H       1  UNL1        0.0000
     39 H          -2.5855   16.1755    2.8439 H       1  UNL1        0.0000
     40 H          -2.2924   15.3723    4.3738 H       1  UNL1        0.0000
     41 H           1.7917   14.3836    7.0644 H       1  UNL1        0.0000
     42 H           0.7434   14.9070    5.7338 H       1  UNL1        0.0000
     43 H           2.3919   12.3452    5.7184 H       1  UNL1        0.0000
     44 H           0.6966   12.4554    6.1818 H       1  UNL1        0.0000
     45 H           0.0544   13.3695    4.0467 H       1  UNL1        0.0000
     46 H           0.7758   11.7474    3.8637 H       1  UNL1        0.0000
     47 H           5.6376   14.5951    1.9234 H       1  UNL1        0.0000
     48 H           4.9753   14.4053    3.5569 H       1  UNL1        0.0000
     49 H           3.8997   12.9822    1.0872 H       1  UNL1        0.0000
     50 H           5.0560   12.2998    2.2264 H       1  UNL1        0.0000
     51 H           3.5506   12.5676    4.0895 H       1  UNL1        0.0000
     52 H           2.8571   11.4901    2.8470 H       1  UNL1        0.0000
     53 H           2.0048   17.9135    1.5137 H       1  UNL1        0.0000
     54 H           3.0871   18.8050    0.4691 H       1  UNL1        0.0000
     55 H           2.0977   17.5359   -0.2095 H       1  UNL1        0.0000
     56 H           6.5041   17.0094    1.7523 H       1  UNL1        0.0000
     57 H           5.9723   18.2840    0.6749 H       1  UNL1        0.0000
     58 H           5.4443   18.2755    2.3490 H       1  UNL1        0.0000
     59 H           3.6772   15.1436   -1.0190 H       1  UNL1        0.0000
     60 H           4.7874   16.4408   -1.4021 H       1  UNL1        0.0000
     61 H           5.3574   15.0364   -0.5316 H       1  UNL1        0.0000
     62 H           6.0567   16.9769    5.8596 H       1  UNL1        0.0000
     63 H           6.3628   15.4176    5.1357 H       1  UNL1        0.0000
     64 H           5.2852   16.5717    4.3433 H       1  UNL1        0.0000
     65 H           3.9874   13.5699    7.9544 H       1  UNL1        0.0000
     66 H           5.1333   13.1878    6.6843 H       1  UNL1        0.0000
     67 H           5.5793   14.2914    7.9670 H       1  UNL1        0.0000
     68 H           4.3839   17.0442    8.2828 H       1  UNL1        0.0000
     69 H           3.3465   17.7632    7.0630 H       1  UNL1        0.0000
     70 H           2.7146   16.5323    8.1435 H       1  UNL1        0.0000
@<TRIPOS>BOND
     1    60    25    1
     2    59    25    1
     3    25    61    1
     4    25     3    1
     5    55    23    1
     6    54    23    1
     7    29     9    1
     8    23     3    1
     9    23    53    1
    10    57    24    1
    11     3    24    1
    12     3     6    1
    13    30    10    1
    14    27     8    1
    15    49    21    1
    16    26     8    1
    17    24    56    1
    18    24    58    1
    19     9     8    1
    20     9    10    1
    21     9    28    1
    22    31    10    1
    23     8     4    1
    24    10     7    1
    25    47    20    1
    26    36    12    1
    27    21    50    1
    28    21    20    1
    29    21    22    1
    30     6    20    1
    31    20    48    1
    32    39    13    1
    33    52    22    1
    34    12    35    1
    35    12    37    1
    36    12     1    1
    37     4     1    1
    38    22     7    1
    39    22    51    1
    40     7    16    1
    41    13     1    1
    42    13    38    1
    43    13    40    1
    44    46    16    1
    45     1    11    1
    46    45    16    1
    47    16    15    1
    48    64    17    1
    49    63    17    1
    50    17    62    1
    51    17     2    1
    52     5    14    1
    53     5     2    1
    54    15    43    1
    55    15    14    1
    56    15    44    1
    57    11    33    1
    58    11    34    1
    59    11    32    1
    60    42    14    1
    61    14    41    1
    62     2    18    1
    63     2    19    1
    64    66    18    1
    65    69    19    1
    66    18    65    1
    67    18    67    1
    68    19    70    1
    69    19    68    1
