@<TRIPOS>MOLECULE
2,3,5
 62 64 0 0 0
SMALL
GASTEIGER

@<TRIPOS>ATOM
      1 SI          8.7740    8.5244   21.0489 Si      1  UNL1        0.0000
      2 N           5.8065    7.5175   19.5116 N.3     1  UNL1        0.0000
      3 N           6.8428    8.9449   18.1383 N.3     1  UNL1        0.0000
      4 N           7.2373    9.1748   20.4971 N.pl3   1  UNL1        0.0000
      5 C           6.6233    8.5514   19.3840 C.3     1  UNL1        0.0000
      6 C           7.7218   10.0680   17.8478 C.3     1  UNL1        0.0000
      7 H           8.2298   10.4007   18.7620 H       1  UNL1        0.0000
      8 C           6.9228   11.2486   17.2817 C.3     1  UNL1        0.0000
      9 H           6.1945   11.5782   18.0249 H       1  UNL1        0.0000
     10 H           6.3813   10.9103   16.3934 H       1  UNL1        0.0000
     11 C           7.8470   12.4064   16.9181 C.3     1  UNL1        0.0000
     12 H           7.2584   13.2313   16.5113 H       1  UNL1        0.0000
     13 H           8.3459   12.7663   17.8212 H       1  UNL1        0.0000
     14 C           8.8941   11.9616   15.9025 C.3     1  UNL1        0.0000
     15 H           8.3969   11.6547   14.9796 H       1  UNL1        0.0000
     16 H           9.5608   12.7930   15.6640 H       1  UNL1        0.0000
     17 C           9.6989   10.7917   16.4577 C.3     1  UNL1        0.0000
     18 H          10.2417   11.1185   17.3480 H       1  UNL1        0.0000
     19 H          10.4337   10.4590   15.7211 H       1  UNL1        0.0000
     20 C           8.7774    9.6327   16.8249 C.3     1  UNL1        0.0000
     21 H           8.2609    9.2683   15.9296 H       1  UNL1        0.0000
     22 H           9.3630    8.8087   17.2399 H       1  UNL1        0.0000
     23 C           5.5079    6.9495   20.8182 C.3     1  UNL1        0.0000
     24 H           6.3624    7.0924   21.4946 H       1  UNL1        0.0000
     25 C           4.2744    7.6017   21.4581 C.3     1  UNL1        0.0000
     26 H           3.4249    7.4793   20.7815 H       1  UNL1        0.0000
     27 H           4.4527    8.6698   21.5930 H       1  UNL1        0.0000
     28 C           3.9570    6.9521   22.8012 C.3     1  UNL1        0.0000
     29 H           4.7952    7.1061   23.4851 H       1  UNL1        0.0000
     30 H           3.0775    7.4283   23.2395 H       1  UNL1        0.0000
     31 C           3.7102    5.4569   22.6297 C.3     1  UNL1        0.0000
     32 H           3.5032    4.9980   23.5988 H       1  UNL1        0.0000
     33 H           2.8357    5.3050   21.9931 H       1  UNL1        0.0000
     34 C           4.9247    4.7939   21.9883 C.3     1  UNL1        0.0000
     35 H           4.7351    3.7286   21.8408 H       1  UNL1        0.0000
     36 H           5.7838    4.8911   22.6568 H       1  UNL1        0.0000
     37 C           5.2529    5.4489   20.6496 C.3     1  UNL1        0.0000
     38 H           6.1350    4.9775   20.2107 H       1  UNL1        0.0000
     39 H           4.4166    5.3180   19.9521 H       1  UNL1        0.0000
     40 C           6.6192   10.3195   20.9842 C.ar    1  UNL1        0.0000
     41 C           7.1924   11.0676   22.0123 C.ar    1  UNL1        0.0000
     42 H           8.1324   10.7587   22.4390 H       1  UNL1        0.0000
     43 C           6.5659   12.2011   22.4931 C.ar    1  UNL1        0.0000
     44 H           7.0307   12.7636   23.2902 H       1  UNL1        0.0000
     45 C           5.3566   12.6211   21.9658 C.ar    1  UNL1        0.0000
     46 H           4.8723   13.5085   22.3435 H       1  UNL1        0.0000
     47 C           4.7764   11.8829   20.9486 C.ar    1  UNL1        0.0000
     48 H           3.8299   12.1899   20.5272 H       1  UNL1        0.0000
     49 C           5.3945   10.7470   20.4635 C.ar    1  UNL1        0.0000
     50 H           4.9273   10.1743   19.6754 H       1  UNL1        0.0000
     51 C          10.2047    9.7448   20.6914 C.3     1  UNL1        0.0000
     52 H          10.5513    9.6584   19.6652 H       1  UNL1        0.0000
     53 H          11.0521    9.5320   21.3361 H       1  UNL1        0.0000
     54 H           9.9228   10.7809   20.8545 H       1  UNL1        0.0000
     55 C           8.6493    8.1236   22.9168 C.3     1  UNL1        0.0000
     56 H           8.7891    7.0621   23.1002 H       1  UNL1        0.0000
     57 H           7.6882    8.4071   23.3362 H       1  UNL1        0.0000
     58 H           9.4170    8.6459   23.4789 H       1  UNL1        0.0000
     59 C           9.0997    6.9371   20.0594 C.3     1  UNL1        0.0000
     60 H           8.4574    6.1242   20.3828 H       1  UNL1        0.0000
     61 H          10.1286    6.6109   20.1771 H       1  UNL1        0.0000
     62 H           8.9164    7.0976   19.0010 H       1  UNL1        0.0000
@<TRIPOS>BOND
     1    15    14    1
     2    16    14    1
     3    19    17    1
     4    14    17    1
     5    14    11    1
     6    21    20    1
     7    10     8    1
     8    17    20    1
     9    17    18    1
    10    12    11    1
    11    20    22    1
    12    20     6    1
    13    11     8    1
    14    11    13    1
    15     8     6    1
    16     8     9    1
    17     6     3    1
    18     6     7    1
    19     3     5    1
    20    62    59    1
    21     5     2    1
    22     5     4    1
    23     2    23    1
    24    52    51    1
    25    50    49    1
    26    39    37    1
    27    59    61    1
    28    59    60    1
    29    59     1    1
    30    38    37    1
    31    49    47   ar
    32    49    40   ar
    33     4    40    1
    34     4     1    1
    35    48    47    1
    36    37    23    1
    37    37    34    1
    38    51    54    1
    39    51     1    1
    40    51    53    1
    41    26    25    1
    42    23    25    1
    43    23    24    1
    44    47    45   ar
    45    40    41   ar
    46     1    55    1
    47    25    27    1
    48    25    28    1
    49    35    34    1
    50    45    46    1
    51    45    43   ar
    52    34    31    1
    53    34    36    1
    54    33    31    1
    55    41    42    1
    56    41    43   ar
    57    43    44    1
    58    31    28    1
    59    31    32    1
    60    28    30    1
    61    28    29    1
    62    55    56    1
    63    55    57    1
    64    55    58    1
