@<TRIPOS>MOLECULE
2,3,56
 58 59 0 0 0
SMALL
GASTEIGER

@<TRIPOS>ATOM
      1 SI         -1.0168    1.9224   24.4099 Si      1  UNL1        0.0000
      2 N          -0.6292   -0.1533   19.7213 N.pl3   1  UNL1        0.0000
      3 N          -1.9701    0.1509   22.4227 N.pl3   1  UNL1        0.0000
      4 C          -2.0555   -1.3831   18.1414 C.3     1  UNL1        0.0000
      5 H          -2.6632   -0.6504   17.6097 H       1  UNL1        0.0000
      6 H          -2.6145   -2.3141   18.1895 H       1  UNL1        0.0000
      7 H          -1.1473   -1.5399   17.5645 H       1  UNL1        0.0000
      8 C          -1.7385   -0.8763   19.5338 C.2     1  UNL1        0.0000
      9 C          -2.6590   -1.1997   20.5139 C.2     1  UNL1        0.0000
     10 H          -3.4506   -1.8641   20.1924 H       1  UNL1        0.0000
     11 C          -2.8314   -0.7214   21.8386 C.3     1  UNL1        0.0000
     12 C          -3.9908   -1.1418   22.5395 C.2     1  UNL1        0.0000
     13 H          -4.6447   -1.8661   22.0768 H       1  UNL1        0.0000
     14 C          -4.2731   -0.6298   23.7753 C.2     1  UNL1        0.0000
     15 H          -5.1539   -0.9454   24.3181 H       1  UNL1        0.0000
     16 C          -3.4034    0.3141   24.3213 C.2     1  UNL1        0.0000
     17 H          -3.6072    0.7534   25.2852 H       1  UNL1        0.0000
     18 C          -2.2603    0.6715   23.6326 C.2     1  UNL1        0.0000
     19 C           0.0520    0.3240   18.5806 C.ar    1  UNL1        0.0000
     20 C          -0.4411    1.4657   17.9171 C.ar    1  UNL1        0.0000
     21 C           0.2563    1.9709   16.8309 C.ar    1  UNL1        0.0000
     22 H          -0.1032    2.8534   16.3248 H       1  UNL1        0.0000
     23 C           1.4093    1.3561   16.3750 C.ar    1  UNL1        0.0000
     24 H           1.9327    1.7544   15.5183 H       1  UNL1        0.0000
     25 C           1.8834    0.2298   17.0191 C.ar    1  UNL1        0.0000
     26 H           2.7758   -0.2530   16.6482 H       1  UNL1        0.0000
     27 C           1.2254   -0.2991   18.1210 C.ar    1  UNL1        0.0000
     28 C          -1.6762    2.1665   18.4414 C.3     1  UNL1        0.0000
     29 H          -2.2878    1.4362   18.9794 H       1  UNL1        0.0000
     30 C          -1.2537    3.2412   19.4497 C.3     1  UNL1        0.0000
     31 H          -0.6184    3.9851   18.9704 H       1  UNL1        0.0000
     32 H          -0.7026    2.7811   20.2758 H       1  UNL1        0.0000
     33 H          -2.1303    3.7420   19.8556 H       1  UNL1        0.0000
     34 C          -2.5385    2.7760   17.3359 C.3     1  UNL1        0.0000
     35 H          -3.4993    3.0805   17.7455 H       1  UNL1        0.0000
     36 H          -2.7163    2.0522   16.5433 H       1  UNL1        0.0000
     37 H          -2.0675    3.6554   16.9030 H       1  UNL1        0.0000
     38 C           1.7678   -1.5415   18.7937 C.3     1  UNL1        0.0000
     39 H           1.1637   -1.7453   19.6887 H       1  UNL1        0.0000
     40 C           3.2168   -1.3331   19.2415 C.3     1  UNL1        0.0000
     41 H           3.8779   -1.2100   18.3861 H       1  UNL1        0.0000
     42 H           3.5583   -2.1955   19.8111 H       1  UNL1        0.0000
     43 H           3.2851   -0.4478   19.8694 H       1  UNL1        0.0000
     44 C           1.6717   -2.7565   17.8665 C.3     1  UNL1        0.0000
     45 H           2.2366   -2.5925   16.9512 H       1  UNL1        0.0000
     46 H           0.6376   -2.9592   17.5985 H       1  UNL1        0.0000
     47 H           2.0723   -3.6375   18.3641 H       1  UNL1        0.0000
     48 C          -0.2638    1.0492   25.9398 C.3     1  UNL1        0.0000
     49 H           0.4390    0.2791   25.6345 H       1  UNL1        0.0000
     50 H          -1.0276    0.5775   26.5494 H       1  UNL1        0.0000
     51 H           0.2678    1.7573   26.5668 H       1  UNL1        0.0000
     52 C          -2.0653    3.4046   25.0317 C.3     1  UNL1        0.0000
     53 H          -1.4245    4.1735   25.4509 H       1  UNL1        0.0000
     54 H          -2.7711    3.1126   25.8026 H       1  UNL1        0.0000
     55 H          -2.6309    3.8538   24.2213 H       1  UNL1        0.0000
     56 C           0.3126    2.2694   23.1362 C.3     1  UNL1        0.0000
     57 H           1.2682    2.4783   23.6268 H       1  UNL1        0.0000
     58 H           0.0648    3.1540   22.5391 H       1  UNL1        0.0000
@<TRIPOS>BOND
     1    24    23    1
     2    22    21    1
     3    23    21   ar
     4    23    25   ar
     5    36    34    1
     6    26    25    1
     7    21    20   ar
     8    37    34    1
     9    45    44    1
    10    25    27   ar
    11    34    35    1
    12    34    28    1
    13     7     4    1
    14    46    44    1
    15     5     4    1
    16    44    47    1
    17    44    38    1
    18    20    28    1
    19    20    19   ar
    20    27    19   ar
    21    27    38    1
    22     4     6    1
    23     4     8    1
    24    41    40    1
    25    28    29    1
    26    28    30    1
    27    19     2    1
    28    38    40    1
    29    38    39    1
    30    31    30    1
    31    40    42    1
    32    40    43    1
    33    30    33    1
    34    30    32    1
    35     8     2    1
    36     8     9    2
    37    10     9    1
    38     9    11    1
    39    11     3    1
    40    11    12    1
    41    13    12    1
    42     3    18    1
    43    58    56    1
    44    12    14    2
    45    56    57    1
    46    56     1    1
    47    18    16    2
    48    18     1    1
    49    14    15    1
    50    14    16    1
    51    55    52    1
    52    16    17    1
    53     1    52    1
    54     1    48    1
    55    52    53    1
    56    52    54    1
    57    49    48    1
    58    48    50    1
    59    48    51    1
