@<TRIPOS>MOLECULE
5,6,7
 75 78 0 0 0
SMALL
GASTEIGER

@<TRIPOS>ATOM
      1 P          17.9568    8.4825   12.8264 P.3     1  UNL1        0.0000
      2 P          20.5784    8.5319   11.5558 P.3     1  UNL1        0.0000
      3 SI         16.5064    6.1556   14.2261 Si      1  UNL1        0.0000
      4 SI         22.9506    6.6053   11.5842 Si      1  UNL1        0.0000
      5 N          17.8345    7.0050   13.5137 N.3     1  UNL1        0.0000
      6 N          21.3630    7.1630   11.9779 N.3     1  UNL1        0.0000
      7 C          19.5902    9.0442   12.8852 C.3     1  UNL1        0.0000
      8 C          17.0580    8.5420   11.2498 C.ar    1  UNL1        0.0000
      9 C          16.7271    9.7719   10.6916 C.ar    1  UNL1        0.0000
     10 H          16.9835   10.6779   11.2246 H       1  UNL1        0.0000
     11 C          16.0736    9.8216    9.4759 C.ar    1  UNL1        0.0000
     12 H          15.8021   10.7760    9.0474 H       1  UNL1        0.0000
     13 C          15.7685    8.6486    8.8024 C.ar    1  UNL1        0.0000
     14 H          15.2559    8.6902    7.8524 H       1  UNL1        0.0000
     15 C          16.1262    7.4243    9.3420 C.ar    1  UNL1        0.0000
     16 H          15.8981    6.5114    8.8101 H       1  UNL1        0.0000
     17 C          16.7726    7.3718   10.5630 C.ar    1  UNL1        0.0000
     18 H          17.0511    6.4284   11.0121 H       1  UNL1        0.0000
     19 C          17.0187    9.6714   13.8429 C.ar    1  UNL1        0.0000
     20 C          17.6994   10.2646   14.8990 C.ar    1  UNL1        0.0000
     21 H          18.7567   10.0528   15.0153 H       1  UNL1        0.0000
     22 C          17.0451   11.1249   15.7612 C.ar    1  UNL1        0.0000
     23 H          17.5808   11.5843   16.5805 H       1  UNL1        0.0000
     24 C          15.7001   11.4008   15.5707 C.ar    1  UNL1        0.0000
     25 H          15.1852   12.0737   16.2411 H       1  UNL1        0.0000
     26 C          15.0167   10.8152   14.5175 C.ar    1  UNL1        0.0000
     27 H          13.9688   11.0334   14.3671 H       1  UNL1        0.0000
     28 C          15.6701    9.9491   13.6591 C.ar    1  UNL1        0.0000
     29 H          15.1355    9.4873   12.8395 H       1  UNL1        0.0000
     30 C          19.8996    8.3320    9.8790 C.ar    1  UNL1        0.0000
     31 C          19.4608    9.4470    9.1746 C.ar    1  UNL1        0.0000
     32 H          19.5414   10.4244    9.6317 H       1  UNL1        0.0000
     33 C          18.9420    9.2950    7.9036 C.ar    1  UNL1        0.0000
     34 H          18.6076   10.1608    7.3502 H       1  UNL1        0.0000
     35 C          18.8511    8.0335    7.3357 C.ar    1  UNL1        0.0000
     36 H          18.4479    7.9192    6.3400 H       1  UNL1        0.0000
     37 C          19.2781    6.9207    8.0414 C.ar    1  UNL1        0.0000
     38 H          19.2086    5.9381    7.5959 H       1  UNL1        0.0000
     39 C          19.7998    7.0702    9.3131 C.ar    1  UNL1        0.0000
     40 H          20.1615    6.2235    9.8795 H       1  UNL1        0.0000
     41 C          21.7772    9.8742   11.2691 C.ar    1  UNL1        0.0000
     42 C          21.9670   10.8210   12.2650 C.ar    1  UNL1        0.0000
     43 H          21.3417   10.7683   13.1464 H       1  UNL1        0.0000
     44 C          22.9138   11.8170   12.1086 C.ar    1  UNL1        0.0000
     45 H          23.0619   12.5520   12.8873 H       1  UNL1        0.0000
     46 C          23.6682   11.8778   10.9483 C.ar    1  UNL1        0.0000
     47 H          24.4059   12.6571   10.8217 H       1  UNL1        0.0000
     48 C          23.4728   10.9418    9.9446 C.ar    1  UNL1        0.0000
     49 H          24.0564   10.9939    9.0362 H       1  UNL1        0.0000
     50 C          22.5338    9.9398   10.1056 C.ar    1  UNL1        0.0000
     51 H          22.3789    9.2035    9.3283 H       1  UNL1        0.0000
     52 C          17.3417    5.0106   15.5194 C.3     1  UNL1        0.0000
     53 H          16.9517    3.9990   15.4713 H       1  UNL1        0.0000
     54 H          17.1595    5.3759   16.5257 H       1  UNL1        0.0000
     55 H          18.4220    4.9667   15.3754 H       1  UNL1        0.0000
     56 C          15.2006    7.1715   15.1854 C.3     1  UNL1        0.0000
     57 H          15.6586    7.9223   15.8221 H       1  UNL1        0.0000
     58 H          14.6148    6.5126   15.8191 H       1  UNL1        0.0000
     59 H          14.5139    7.6811   14.5187 H       1  UNL1        0.0000
     60 C          15.5292    5.0779   12.9736 C.3     1  UNL1        0.0000
     61 H          14.8153    4.4542   13.5023 H       1  UNL1        0.0000
     62 H          16.1786    4.4211   12.4028 H       1  UNL1        0.0000
     63 H          14.9726    5.6887   12.2692 H       1  UNL1        0.0000
     64 C          23.1409    5.0253   12.6500 C.3     1  UNL1        0.0000
     65 H          22.7771    4.1425   12.1332 H       1  UNL1        0.0000
     66 H          22.5851    5.1281   13.5830 H       1  UNL1        0.0000
     67 H          24.1833    4.8471   12.8922 H       1  UNL1        0.0000
     68 C          24.3499    7.8107   12.0980 C.3     1  UNL1        0.0000
     69 H          24.1716    8.2230   13.0875 H       1  UNL1        0.0000
     70 H          24.4387    8.6442   11.4090 H       1  UNL1        0.0000
     71 H          25.3067    7.2978   12.1183 H       1  UNL1        0.0000
     72 C          23.2080    6.1375    9.7419 C.3     1  UNL1        0.0000
     73 H          22.9207    6.9456    9.0774 H       1  UNL1        0.0000
     74 H          22.6299    5.2630    9.4573 H       1  UNL1        0.0000
     75 H          24.2531    5.9128    9.5561 H       1  UNL1        0.0000
@<TRIPOS>BOND
     1    36    35    1
     2    35    33   ar
     3    35    37   ar
     4    34    33    1
     5    38    37    1
     6    14    13    1
     7    33    31   ar
     8    37    39   ar
     9    13    15   ar
    10    13    11   ar
    11    16    15    1
    12    49    48    1
    13    12    11    1
    14    73    72    1
    15    31    32    1
    16    31    30   ar
    17    39    30   ar
    18    39    40    1
    19    51    50    1
    20    15    17   ar
    21    74    72    1
    22    11     9   ar
    23    75    72    1
    24    72     4    1
    25    30     2    1
    26    48    50   ar
    27    48    46   ar
    28    50    41   ar
    29    17    18    1
    30    17     8   ar
    31     9    10    1
    32     9     8   ar
    33    47    46    1
    34    46    44   ar
    35     8     1    1
    36    41     2    1
    37    41    42   ar
    38    70    68    1
    39     2     6    1
    40     2     7    1
    41     4     6    1
    42     4    68    1
    43     4    64    1
    44    68    71    1
    45    68    69    1
    46    44    42   ar
    47    44    45    1
    48    65    64    1
    49    42    43    1
    50    63    60    1
    51    62    60    1
    52    64    67    1
    53    64    66    1
    54     1     7    1
    55     1     5    1
    56     1    19    1
    57    29    28    1
    58    60    61    1
    59    60     3    1
    60     5     3    1
    61    28    19   ar
    62    28    26   ar
    63    19    20   ar
    64     3    56    1
    65     3    52    1
    66    27    26    1
    67    26    24   ar
    68    59    56    1
    69    20    21    1
    70    20    22   ar
    71    56    58    1
    72    56    57    1
    73    55    52    1
    74    53    52    1
    75    52    54    1
    76    24    22   ar
    77    24    25    1
    78    22    23    1
