@<TRIPOS>MOLECULE
3,4,6
 64 65 0 0 0
SMALL
GASTEIGER

@<TRIPOS>ATOM
      1 SI         19.5242    7.0051   14.0027 Si      1  UNL1        0.0000
      2 SI         16.4884    7.1369   13.0777 Si      1  UNL1        0.0000
      3 N          18.0104   10.1215   13.9172 N.3     1  UNL1        0.0000
      4 N          18.6175    9.5589   11.8416 N.3     1  UNL1        0.0000
      5 N          18.0898    7.7931   13.3675 N.3     1  UNL1        0.0000
      6 C          18.2399    9.1575   13.0407 C.3     1  UNL1        0.0000
      7 C          17.5625    9.8254   15.2650 C.3     1  UNL1        0.0000
      8 H          17.4973    8.7402   15.4127 H       1  UNL1        0.0000
      9 C          18.5621   10.4031   16.2749 C.3     1  UNL1        0.0000
     10 H          18.6929   11.4676   16.0581 H       1  UNL1        0.0000
     11 H          19.5257    9.9084   16.1422 H       1  UNL1        0.0000
     12 C          18.0791   10.2193   17.7099 C.3     1  UNL1        0.0000
     13 H          18.8031   10.6575   18.4007 H       1  UNL1        0.0000
     14 H          18.0063    9.1523   17.9362 H       1  UNL1        0.0000
     15 C          16.7137   10.8689   17.9047 C.3     1  UNL1        0.0000
     16 H          16.3727   10.7239   18.9325 H       1  UNL1        0.0000
     17 H          16.7953   11.9431   17.7253 H       1  UNL1        0.0000
     18 C          15.7071   10.2660   16.9309 C.3     1  UNL1        0.0000
     19 H          14.7306   10.7388   17.0606 H       1  UNL1        0.0000
     20 H          15.5921    9.2007   17.1486 H       1  UNL1        0.0000
     21 C          16.1766   10.4431   15.4905 C.3     1  UNL1        0.0000
     22 H          15.4635    9.9809   14.8054 H       1  UNL1        0.0000
     23 H          16.2368   11.5070   15.2438 H       1  UNL1        0.0000
     24 C          19.0109    8.6106   10.8178 C.3     1  UNL1        0.0000
     25 H          18.9711    7.5892   11.2155 H       1  UNL1        0.0000
     26 C          20.4458    8.9150   10.3664 C.3     1  UNL1        0.0000
     27 H          21.1174    8.8182   11.2214 H       1  UNL1        0.0000
     28 H          20.4843    9.9543   10.0208 H       1  UNL1        0.0000
     29 C          20.8879    7.9770    9.2471 C.3     1  UNL1        0.0000
     30 H          21.9054    8.2260    8.9371 H       1  UNL1        0.0000
     31 H          20.8946    6.9480    9.6157 H       1  UNL1        0.0000
     32 C          19.9409    8.0754    8.0558 C.3     1  UNL1        0.0000
     33 H          19.9759    9.0881    7.6478 H       1  UNL1        0.0000
     34 H          20.2552    7.3854    7.2694 H       1  UNL1        0.0000
     35 C          18.5159    7.7554    8.4942 C.3     1  UNL1        0.0000
     36 H          18.4717    6.7234    8.8518 H       1  UNL1        0.0000
     37 H          17.8351    7.8414    7.6435 H       1  UNL1        0.0000
     38 C          18.0744    8.6997    9.6076 C.3     1  UNL1        0.0000
     39 H          18.0885    9.7298    9.2424 H       1  UNL1        0.0000
     40 H          17.0577    8.4585    9.9220 H       1  UNL1        0.0000
     41 C          20.9318    8.2803   14.1876 C.3     1  UNL1        0.0000
     42 H          21.2261    8.4046   15.2257 H       1  UNL1        0.0000
     43 H          20.6235    9.2514   13.8081 H       1  UNL1        0.0000
     44 H          21.8178    7.9733   13.6392 H       1  UNL1        0.0000
     45 C          20.1302    5.6072   12.8488 C.3     1  UNL1        0.0000
     46 H          20.5806    5.9880   11.9374 H       1  UNL1        0.0000
     47 H          19.3279    4.9354   12.5654 H       1  UNL1        0.0000
     48 H          20.8840    5.0162   13.3597 H       1  UNL1        0.0000
     49 C          19.1591    6.2138   15.7015 C.3     1  UNL1        0.0000
     50 H          18.6564    6.8917   16.3833 H       1  UNL1        0.0000
     51 H          20.0879    5.9056   16.1711 H       1  UNL1        0.0000
     52 H          18.5428    5.3270   15.5989 H       1  UNL1        0.0000
     53 C          16.5813    5.6518   11.8810 C.3     1  UNL1        0.0000
     54 H          17.1677    5.8654   10.9934 H       1  UNL1        0.0000
     55 H          15.5833    5.3743   11.5564 H       1  UNL1        0.0000
     56 H          17.0133    4.7823   12.3652 H       1  UNL1        0.0000
     57 C          15.6883    6.5161   14.6972 C.3     1  UNL1        0.0000
     58 H          15.5259    7.3151   15.4134 H       1  UNL1        0.0000
     59 H          16.2921    5.7567   15.1809 H       1  UNL1        0.0000
     60 H          14.7219    6.0715   14.4802 H       1  UNL1        0.0000
     61 C          15.3595    8.4810   12.3265 C.3     1  UNL1        0.0000
     62 H          15.8441    9.4538   12.3495 H       1  UNL1        0.0000
     63 H          14.4243    8.5604   12.8736 H       1  UNL1        0.0000
     64 H          15.1061    8.2619   11.2934 H       1  UNL1        0.0000
@<TRIPOS>BOND
     1    34    32    1
     2    37    35    1
     3    33    32    1
     4    32    35    1
     5    32    29    1
     6    35    36    1
     7    35    38    1
     8    30    29    1
     9    39    38    1
    10    29    31    1
    11    29    26    1
    12    38    40    1
    13    38    24    1
    14    28    26    1
    15    26    24    1
    16    26    27    1
    17    24    25    1
    18    24     4    1
    19    54    53    1
    20    64    61    1
    21    55    53    1
    22     4     6    1
    23    53    56    1
    24    53     2    1
    25    46    45    1
    26    61    62    1
    27    61    63    1
    28    61     2    1
    29    47    45    1
    30    45    48    1
    31    45     1    1
    32     6     5    1
    33     6     3    1
    34     2     5    1
    35     2    57    1
    36     5     1    1
    37    44    41    1
    38    43    41    1
    39     3     7    1
    40     1    41    1
    41     1    49    1
    42    41    42    1
    43    60    57    1
    44    57    59    1
    45    57    58    1
    46    22    21    1
    47    23    21    1
    48     7     8    1
    49     7    21    1
    50     7     9    1
    51    21    18    1
    52    52    49    1
    53    49    51    1
    54    49    50    1
    55    10     9    1
    56    11     9    1
    57     9    12    1
    58    18    19    1
    59    18    20    1
    60    18    15    1
    61    12    15    1
    62    12    14    1
    63    12    13    1
    64    17    15    1
    65    15    16    1
