@<TRIPOS>MOLECULE
3,4,6
 64 65 0 0 0
SMALL
GASTEIGER

@<TRIPOS>ATOM
      1 SI         16.6329   16.3290   10.7295 Si      1  UNL1        0.0000
      2 SI         14.3963   14.7764   12.3320 Si      1  UNL1        0.0000
      3 N          17.6302   13.8704   13.0649 N.3     1  UNL1        0.0000
      4 N          17.0880   12.9499   11.1091 N.3     1  UNL1        0.0000
      5 N          16.0179   15.0078   11.7068 N.3     1  UNL1        0.0000
      6 C          16.9122   13.9473   11.9601 C.3     1  UNL1        0.0000
      7 C          17.5833   14.9041   14.0814 C.3     1  UNL1        0.0000
      8 H          16.6125   15.4202   14.0518 H       1  UNL1        0.0000
      9 C          17.7660   14.2444   15.4510 C.3     1  UNL1        0.0000
     10 H          16.9548   13.5321   15.6178 H       1  UNL1        0.0000
     11 H          18.7132   13.6929   15.4306 H       1  UNL1        0.0000
     12 C          17.7938   15.2733   16.5760 C.3     1  UNL1        0.0000
     13 H          16.8342   15.7962   16.6153 H       1  UNL1        0.0000
     14 H          17.9380   14.7683   17.5343 H       1  UNL1        0.0000
     15 C          18.9128   16.2824   16.3453 C.3     1  UNL1        0.0000
     16 H          18.9194   17.0252   17.1466 H       1  UNL1        0.0000
     17 H          19.8737   15.7638   16.3524 H       1  UNL1        0.0000
     18 C          18.7243   16.9659   14.9959 C.3     1  UNL1        0.0000
     19 H          19.5355   17.6762   14.8220 H       1  UNL1        0.0000
     20 H          17.7850   17.5264   15.0025 H       1  UNL1        0.0000
     21 C          18.7007   15.9338   13.8735 C.3     1  UNL1        0.0000
     22 H          18.5595   16.4276   12.9134 H       1  UNL1        0.0000
     23 H          19.6531   15.4019   13.8435 H       1  UNL1        0.0000
     24 C          16.3163   12.8307    9.8905 C.3     1  UNL1        0.0000
     25 H          15.6615   13.7019    9.7637 H       1  UNL1        0.0000
     26 C          17.2689   12.7413    8.6914 C.3     1  UNL1        0.0000
     27 H          17.8385   13.6692    8.6195 H       1  UNL1        0.0000
     28 H          17.9801   11.9288    8.8795 H       1  UNL1        0.0000
     29 C          16.5114   12.4904    7.3914 C.3     1  UNL1        0.0000
     30 H          15.8556   13.3406    7.1860 H       1  UNL1        0.0000
     31 H          17.2178   12.4084    6.5618 H       1  UNL1        0.0000
     32 C          15.6706   11.2216    7.4872 C.3     1  UNL1        0.0000
     33 H          16.3253   10.3604    7.6335 H       1  UNL1        0.0000
     34 H          15.1187   11.0696    6.5566 H       1  UNL1        0.0000
     35 C          14.6996   11.3241    8.6586 C.3     1  UNL1        0.0000
     36 H          14.1095   10.4077    8.7357 H       1  UNL1        0.0000
     37 H          14.0082   12.1518    8.4791 H       1  UNL1        0.0000
     38 C          15.4530   11.5637    9.9630 C.3     1  UNL1        0.0000
     39 H          14.7487   11.6585   10.7930 H       1  UNL1        0.0000
     40 H          16.1105   10.7171   10.1783 H       1  UNL1        0.0000
     41 C          18.4516   15.9906   10.2534 C.3     1  UNL1        0.0000
     42 H          18.5640   15.8989    9.1767 H       1  UNL1        0.0000
     43 H          18.8110   15.0696   10.7067 H       1  UNL1        0.0000
     44 H          19.1071   16.7954   10.5736 H       1  UNL1        0.0000
     45 C          16.4810   17.9815   11.6766 C.3     1  UNL1        0.0000
     46 H          16.6764   17.8813   12.7380 H       1  UNL1        0.0000
     47 H          15.4872   18.4014   11.5643 H       1  UNL1        0.0000
     48 H          17.1817   18.7098   11.2798 H       1  UNL1        0.0000
     49 C          15.6237   16.5489    9.1198 C.3     1  UNL1        0.0000
     50 H          15.6142   15.6590    8.4985 H       1  UNL1        0.0000
     51 H          16.0523   17.3532    8.5295 H       1  UNL1        0.0000
     52 H          14.5940   16.8199    9.3297 H       1  UNL1        0.0000
     53 C          13.8270   16.3371   13.2695 C.3     1  UNL1        0.0000
     54 H          14.5460   16.6768   14.0073 H       1  UNL1        0.0000
     55 H          12.8955   16.1347   13.7882 H       1  UNL1        0.0000
     56 H          13.6448   17.1588   12.5862 H       1  UNL1        0.0000
     57 C          13.1164   14.4658   10.9454 C.3     1  UNL1        0.0000
     58 H          13.2291   13.4900   10.4846 H       1  UNL1        0.0000
     59 H          13.1836   15.2101   10.1594 H       1  UNL1        0.0000
     60 H          12.1120   14.5180   11.3550 H       1  UNL1        0.0000
     61 C          14.3921   13.2728   13.5036 C.3     1  UNL1        0.0000
     62 H          15.1191   12.5301   13.1819 H       1  UNL1        0.0000
     63 H          13.4162   12.7969   13.5352 H       1  UNL1        0.0000
     64 H          14.6469   13.5605   14.5190 H       1  UNL1        0.0000
@<TRIPOS>BOND
     1    34    32    1
     2    31    29    1
     3    30    29    1
     4    29    32    1
     5    29    26    1
     6    32    33    1
     7    32    35    1
     8    37    35    1
     9    50    49    1
    10    51    49    1
    11    27    26    1
    12    35    36    1
    13    35    38    1
    14    26    28    1
    15    26    24    1
    16    49    52    1
    17    49     1    1
    18    42    41    1
    19    25    24    1
    20    24    38    1
    21    24     4    1
    22    38    40    1
    23    38    39    1
    24    59    57    1
    25    41    44    1
    26    41    43    1
    27    41     1    1
    28    58    57    1
    29     1    45    1
    30     1     5    1
    31    57    60    1
    32    57     2    1
    33     4     6    1
    34    48    45    1
    35    47    45    1
    36    45    46    1
    37     5     6    1
    38     5     2    1
    39     6     3    1
    40     2    53    1
    41     2    61    1
    42    56    53    1
    43    22    21    1
    44     3     7    1
    45    62    61    1
    46    53    55    1
    47    53    54    1
    48    61    63    1
    49    61    64    1
    50    23    21    1
    51    21     7    1
    52    21    18    1
    53     8     7    1
    54     7     9    1
    55    19    18    1
    56    18    20    1
    57    18    15    1
    58    11     9    1
    59     9    10    1
    60     9    12    1
    61    15    17    1
    62    15    12    1
    63    15    16    1
    64    12    13    1
    65    12    14    1
