@<TRIPOS>MOLECULE
1,4,7
 47 49 0 0 0
SMALL
GASTEIGER

@<TRIPOS>ATOM
      1 C           0.2850    4.3889    1.3521 C.3     1  UNL1        0.0289
      2 C           1.4468    3.8939    0.6652 C.ar    1  UNL1       -0.0291
      3 C           2.5255    4.8306    0.9041 C.ar    1  UNL1       -0.0213
      4 N           2.0083    0.8817    3.5035 N.3     1  UNL1       -0.3039
      5 C           0.6842    5.6004    1.9995 C.2     1  UNL1       -0.0718
      6 H          -0.0015    6.2853    2.4871 H       1  UNL1        0.0581
      7 N          -0.4699    2.1427    2.9401 N.3     1  UNL1       -0.2355
      8 C           2.0274    5.8669    1.7246 C.2     1  UNL1       -0.0574
      9 H           2.5782    6.7364    2.0417 H       1  UNL1        0.0621
     10 C           2.9108    2.6173   -0.7478 C.ar    1  UNL1       -0.0614
     11 H           3.0858    1.7805   -1.4101 H       1  UNL1        0.0618
     12 C           3.9611    3.5133   -0.4934 C.ar    1  UNL1       -0.0612
     13 H           4.9214    3.3391   -0.9583 H       1  UNL1        0.0618
     14 C           3.7769    4.6106    0.3109 C.ar    1  UNL1       -0.0543
     15 H           4.5824    5.3137    0.4758 H       1  UNL1        0.0624
     16 C           1.6671    2.7984   -0.1919 C.ar    1  UNL1       -0.0571
     17 H           0.8578    2.1229   -0.4395 H       1  UNL1        0.0621
     18 C          -1.1309    3.8636    1.2710 C.3     1  UNL1       -0.0246
     19 H          -1.7712    4.4904    1.9010 H       1  UNL1        0.0290
     20 H          -1.5039    3.9276    0.2424 H       1  UNL1        0.0290
     21 C          -1.2462    2.3984    1.7379 C.3     1  UNL1        0.0154
     22 H          -2.3141    2.1706    1.9062 H       1  UNL1        0.0441
     23 H          -0.9121    1.7328    0.9166 H       1  UNL1        0.0441
     24 C           0.7617    0.3350    4.1039 C.3     1  UNL1        0.0267
     25 H           0.6796    0.8265    5.0830 H       1  UNL1        0.0478
     26 C          -0.4882    0.7387    3.2872 C.3     1  UNL1        0.0409
     27 H          -0.5220    0.1186    2.3679 H       1  UNL1        0.0492
     28 C          -1.7299    0.3660    4.1286 C.3     1  UNL1       -0.0345
     29 H          -1.7058    0.9443    5.0548 H       1  UNL1        0.0281
     30 H          -2.6274    0.6539    3.5802 H       1  UNL1        0.0281
     31 C           2.3804    0.2113    2.2517 C.3     1  UNL1       -0.0127
     32 H           3.2059    0.7515    1.7828 H       1  UNL1        0.0391
     33 H           1.5385    0.2158    1.5623 H       1  UNL1        0.0391
     34 H           2.6980   -0.8248    2.4220 H       1  UNL1        0.0391
     35 C           0.7393   -1.1836    4.3231 C.3     1  UNL1       -0.0359
     36 H           0.6965   -1.7025    3.3636 H       1  UNL1        0.0281
     37 H           1.6357   -1.5134    4.8510 H       1  UNL1        0.0281
     38 C          -0.4899   -1.5609    5.1471 C.3     1  UNL1       -0.0515
     39 H          -0.4349   -1.0731    6.1227 H       1  UNL1        0.0266
     40 H          -0.5045   -2.6402    5.3131 H       1  UNL1        0.0266
     41 C          -1.7649   -1.1269    4.4326 C.3     1  UNL1       -0.0515
     42 H          -2.6341   -1.3599    5.0505 H       1  UNL1        0.0266
     43 H          -1.8623   -1.6837    3.4975 H       1  UNL1        0.0266
     44 C           3.1239    0.7666    4.4499 C.3     1  UNL1       -0.0127
     45 H           3.3422   -0.2787    4.7027 H       1  UNL1        0.0391
     46 H           2.8910    1.3179    5.3618 H       1  UNL1        0.0391
     47 H           4.0216    1.1938    4.0042 H       1  UNL1        0.0391
@<TRIPOS>BOND
     1    11    10    1
     2    13    12    1
     3    10    12   ar
     4    10    16   ar
     5    12    14   ar
     6    17    16    1
     7    16     2   ar
     8    20    18    1
     9    14    15    1
    10    14     3   ar
    11     2     3   ar
    12     2     1    1
    13     3     8    1
    14    23    21    1
    15    18     1    1
    16    18    21    1
    17    18    19    1
    18     1     5    1
    19    33    31    1
    20     8     5    2
    21     8     9    1
    22    21    22    1
    23    21     7    1
    24    32    31    1
    25     5     6    1
    26    31    34    1
    27    31     4    1
    28    27    26    1
    29     7    26    1
    30    26    24    1
    31    26    28    1
    32    36    35    1
    33    43    41    1
    34     4    24    1
    35     4    44    1
    36    30    28    1
    37    47    44    1
    38    24    35    1
    39    24    25    1
    40    28    41    1
    41    28    29    1
    42    35    37    1
    43    35    38    1
    44    41    42    1
    45    41    38    1
    46    44    45    1
    47    44    46    1
    48    38    40    1
    49    38    39    1
