@<TRIPOS>MOLECULE
1,2,3
 24 23 0 0 0
SMALL
GASTEIGER

@<TRIPOS>ATOM
      1 N          -0.1680    6.8155    3.2425 N.3     1  UNL1       -0.2146
      2 N          -0.0594    7.1900    5.4708 N.3     1  UNL1       -0.2146
      3 C          -0.5998    6.5505    4.4569 C.3     1  UNL1        0.1221
      4 H          -1.4090    5.8256    4.6176 H       1  UNL1        0.0687
      5 C          -0.7441    6.0892    2.1187 C.3     1  UNL1        0.0216
      6 H          -1.8457    6.0937    2.1949 H       1  UNL1        0.0472
      7 C          -0.3288    6.7994    0.8303 C.3     1  UNL1       -0.0483
      8 H          -0.6753    7.8324    0.8344 H       1  UNL1        0.0245
      9 H          -0.7522    6.2941   -0.0345 H       1  UNL1        0.0245
     10 H           0.7582    6.7908    0.7458 H       1  UNL1        0.0245
     11 C          -0.2637    4.6347    2.0995 C.3     1  UNL1       -0.0483
     12 H           0.8215    4.6105    2.0345 H       1  UNL1        0.0245
     13 H          -0.6840    4.1103    1.2447 H       1  UNL1        0.0245
     14 H          -0.5673    4.1198    3.0082 H       1  UNL1        0.0245
     15 C          -0.5106    6.8769    6.8184 C.3     1  UNL1        0.0216
     16 H          -1.6141    6.8675    6.8510 H       1  UNL1        0.0472
     17 C           0.0067    7.9644    7.7588 C.3     1  UNL1       -0.0483
     18 H           1.0966    7.9846    7.7257 H       1  UNL1        0.0245
     19 H          -0.3113    7.7684    8.7801 H       1  UNL1        0.0245
     20 H          -0.3746    8.9381    7.4545 H       1  UNL1        0.0245
     21 C           0.0071    5.5048    7.2637 C.3     1  UNL1       -0.0483
     22 H          -0.3698    4.7226    6.6088 H       1  UNL1        0.0245
     23 H          -0.3126    5.2921    8.2811 H       1  UNL1        0.0245
     24 H           1.0940    5.4959    7.2213 H       1  UNL1        0.0245
@<TRIPOS>BOND
     1     9     7    1
     2    10     7    1
     3     7     8    1
     4     7     5    1
     5    13    11    1
     6    12    11    1
     7    11     5    1
     8    11    14    1
     9     5     6    1
    10     5     1    1
    11     1     3    1
    12     3     4    1
    13     3     2    1
    14     2    15    1
    15    22    21    1
    16    15    16    1
    17    15    21    1
    18    15    17    1
    19    24    21    1
    20    21    23    1
    21    20    17    1
    22    18    17    1
    23    17    19    1
