@<TRIPOS>MOLECULE
1,38,66
 79 82 0 0 0
SMALL
GASTEIGER

@<TRIPOS>ATOM
      1 N           4.4250    0.6026    9.5753 N.3     1  UNL1        0.0000
      2 SI          5.1551    1.8163   10.5906 Si      1  UNL1        0.0000
      3 C           3.7685    2.7977   11.4829 C.3     1  UNL1        0.0000
      4 H           2.7891    2.5633   11.0681 H       1  UNL1        0.0000
      5 H           3.9203    3.8649   11.3564 H       1  UNL1        0.0000
      6 H           3.7429    2.5942   12.5503 H       1  UNL1        0.0000
      7 C           6.2300    2.9210    9.4635 C.3     1  UNL1        0.0000
      8 H           7.0001    2.3462    8.9543 H       1  UNL1        0.0000
      9 H           6.7186    3.7004   10.0394 H       1  UNL1        0.0000
     10 H           5.6209    3.3998    8.6996 H       1  UNL1        0.0000
     11 C           6.2599    0.9420   11.8859 C.3     1  UNL1        0.0000
     12 H           5.7523    0.1000   12.3489 H       1  UNL1        0.0000
     13 H           6.5410    1.6353   12.6705 H       1  UNL1        0.0000
     14 H           7.1735    0.5669   11.4359 H       1  UNL1        0.0000
     15 P           4.4156   -1.0039    9.6343 P.3     1  UNL1        0.0000
     16 C           6.1144   -1.6262    9.7922 C.ar    1  UNL1        0.0000
     17 C           7.0134   -1.1014    8.8668 C.ar    1  UNL1        0.0000
     18 H           6.6591   -0.3802    8.1381 H       1  UNL1        0.0000
     19 C           8.3386   -1.4926    8.8947 C.ar    1  UNL1        0.0000
     20 H           9.0368   -1.0846    8.1791 H       1  UNL1        0.0000
     21 C           8.7699   -2.4064    9.8449 C.ar    1  UNL1        0.0000
     22 H           9.8061   -2.7097    9.8707 H       1  UNL1        0.0000
     23 C           7.8754   -2.9279   10.7651 C.ar    1  UNL1        0.0000
     24 H           8.2150   -3.6354   11.5075 H       1  UNL1        0.0000
     25 C           6.5463   -2.5415   10.7421 C.ar    1  UNL1        0.0000
     26 H           5.8501   -2.9414   11.4658 H       1  UNL1        0.0000
     27 C           3.4628   -1.7397   10.9948 C.ar    1  UNL1        0.0000
     28 C           2.9629   -0.9582   12.0268 C.ar    1  UNL1        0.0000
     29 H           3.1301    0.1088   12.0074 H       1  UNL1        0.0000
     30 C           2.2415   -1.5519   13.0470 C.ar    1  UNL1        0.0000
     31 H           1.8466   -0.9468   13.8492 H       1  UNL1        0.0000
     32 C           2.0197   -2.9198   13.0368 C.ar    1  UNL1        0.0000
     33 H           1.4535   -3.3804   13.8330 H       1  UNL1        0.0000
     34 C           2.5160   -3.7007   12.0045 C.ar    1  UNL1        0.0000
     35 H           2.3381   -4.7664   11.9972 H       1  UNL1        0.0000
     36 C           3.2360   -3.1125   10.9811 C.ar    1  UNL1        0.0000
     37 H           3.6301   -3.7089   10.1675 H       1  UNL1        0.0000
     38 C           3.7705   -1.3584    8.0124 C.3     1  UNL1        0.0000
     39 H           4.5753   -1.7569    7.3761 H       1  UNL1        0.0000
     40 C           2.4781   -2.1340    7.8311 C.3     1  UNL1        0.0000
     41 H           1.8078   -2.0334    8.6917 H       1  UNL1        0.0000
     42 H           2.6011   -3.1990    7.5888 H       1  UNL1        0.0000
     43 P           1.7569   -1.2553    6.3829 P.3     1  UNL1        0.0000
     44 C           2.6663   -1.9822    4.9875 C.ar    1  UNL1        0.0000
     45 C           3.5641   -1.1802    4.2939 C.ar    1  UNL1        0.0000
     46 H           3.6798   -0.1443    4.5865 H       1  UNL1        0.0000
     47 C           4.3140   -1.7188    3.2628 C.ar    1  UNL1        0.0000
     48 H           5.0152   -1.0966    2.7277 H       1  UNL1        0.0000
     49 C           4.1690   -3.0546    2.9249 C.ar    1  UNL1        0.0000
     50 H           4.7504   -3.4744    2.1175 H       1  UNL1        0.0000
     51 C           3.2867   -3.8606    3.6284 C.ar    1  UNL1        0.0000
     52 H           3.1850   -4.9049    3.3709 H       1  UNL1        0.0000
     53 C           2.5402   -3.3300    4.6646 C.ar    1  UNL1        0.0000
     54 H           1.8610   -3.9579    5.2263 H       1  UNL1        0.0000
     55 C           0.0009   -1.6970    6.2586 C.ar    1  UNL1        0.0000
     56 C          -0.7950   -1.3022    7.3305 C.ar    1  UNL1        0.0000
     57 H          -0.3435   -0.7771    8.1632 H       1  UNL1        0.0000
     58 C          -2.1521   -1.5687    7.3148 C.ar    1  UNL1        0.0000
     59 H          -2.7692   -1.2604    8.1453 H       1  UNL1        0.0000
     60 C          -2.7171   -2.2282    6.2344 C.ar    1  UNL1        0.0000
     61 H          -3.7766   -2.4365    6.2217 H       1  UNL1        0.0000
     62 C          -1.9253   -2.6151    5.1653 C.ar    1  UNL1        0.0000
     63 H          -2.3680   -3.1207    4.3196 H       1  UNL1        0.0000
     64 C          -0.5671   -2.3494    5.1718 C.ar    1  UNL1        0.0000
     65 H           0.0444   -2.6354    4.3283 H       1  UNL1        0.0000
     66 N           2.0492    0.3047    6.5283 N.3     1  UNL1        0.0000
     67 SI          1.2011    1.5314    5.5893 Si      1  UNL1        0.0000
     68 C           2.4756    2.7385    4.8306 C.3     1  UNL1        0.0000
     69 H           3.2327    3.0478    5.5468 H       1  UNL1        0.0000
     70 H           1.9666    3.6328    4.4857 H       1  UNL1        0.0000
     71 H           2.9867    2.3017    3.9757 H       1  UNL1        0.0000
     72 C          -0.1310    2.3299    6.7059 C.3     1  UNL1        0.0000
     73 H          -0.9819    1.6663    6.8436 H       1  UNL1        0.0000
     74 H          -0.4954    3.2528    6.2671 H       1  UNL1        0.0000
     75 H           0.2687    2.5661    7.6899 H       1  UNL1        0.0000
     76 C           0.3202    0.6974    4.1058 C.3     1  UNL1        0.0000
     77 H           0.9011   -0.1292    3.7054 H       1  UNL1        0.0000
     78 H           0.1746    1.4153    3.3068 H       1  UNL1        0.0000
     79 H          -0.6570    0.3161    4.3812 H       1  UNL1        0.0000
@<TRIPOS>BOND
     1    50    49    1
     2    48    47    1
     3    49    47   ar
     4    49    51   ar
     5    47    45   ar
     6    78    76    1
     7    52    51    1
     8    51    53   ar
     9    77    76    1
    10    71    68    1
    11    76    79    1
    12    76    67    1
    13    45    46    1
    14    45    44   ar
    15    63    62    1
    16    65    64    1
    17    70    68    1
    18    53    44   ar
    19    53    54    1
    20    68    69    1
    21    68    67    1
    22    44    43    1
    23    62    64   ar
    24    62    60   ar
    25    64    55   ar
    26    67    66    1
    27    67    72    1
    28    61    60    1
    29    60    58   ar
    30    55    43    1
    31    55    56   ar
    32    74    72    1
    33    43    66    1
    34    43    40    1
    35    72    73    1
    36    72    75    1
    37    58    56   ar
    38    58    59    1
    39    56    57    1
    40    39    38    1
    41    42    40    1
    42    40    38    1
    43    40    41    1
    44    38    15    1
    45    18    17    1
    46    20    19    1
    47    10     7    1
    48    17    19   ar
    49    17    16   ar
    50    19    21   ar
    51     8     7    1
    52     7     9    1
    53     7     2    1
    54     1    15    1
    55     1     2    1
    56    15    16    1
    57    15    27    1
    58    16    25   ar
    59    21    22    1
    60    21    23   ar
    61    37    36    1
    62     2     3    1
    63     2    11    1
    64    25    23   ar
    65    25    26    1
    66    23    24    1
    67    36    27   ar
    68    36    34   ar
    69    27    28   ar
    70     4     3    1
    71     5     3    1
    72    14    11    1
    73     3     6    1
    74    11    12    1
    75    11    13    1
    76    35    34    1
    77    34    32   ar
    78    29    28    1
    79    28    30   ar
    80    32    30   ar
    81    32    33    1
    82    30    31    1
