@<TRIPOS>MOLECULE
1,2,62
 64 66 0 0 0
SMALL
GASTEIGER

@<TRIPOS>ATOM
      1 N           2.2989    5.0574    6.8057 N.pl3   1  UNL1       -0.2415
      2 N           3.0701    3.1052    8.6233 N.pl3   1  UNL1       -0.2346
      3 C           1.6567    5.2009    5.5648 C.ar    1  UNL1        0.0553
      4 C           1.4898    6.4999    5.0316 C.ar    1  UNL1       -0.0220
      5 C           0.8900    6.6790    3.7963 C.ar    1  UNL1       -0.0565
      6 H           0.7717    7.6763    3.3978 H       1  UNL1        0.0621
      7 C           0.4242    5.6008    3.0676 C.ar    1  UNL1       -0.0611
      8 H          -0.0590    5.7519    2.1133 H       1  UNL1        0.0618
      9 C           0.5957    4.3250    3.5691 C.ar    1  UNL1       -0.0565
     10 H           0.2503    3.4823    2.9868 H       1  UNL1        0.0621
     11 C           1.2053    4.1043    4.7957 C.ar    1  UNL1       -0.0220
     12 C           2.0044    7.6955    5.7978 C.3     1  UNL1       -0.0197
     13 H           2.3172    7.3325    6.7827 H       1  UNL1        0.0344
     14 C           0.9338    8.7698    5.9913 C.3     1  UNL1       -0.0586
     15 H           0.0365    8.3435    6.4357 H       1  UNL1        0.0235
     16 H           0.6587    9.2285    5.0445 H       1  UNL1        0.0235
     17 H           1.3062    9.5522    6.6502 H       1  UNL1        0.0235
     18 C           3.2347    8.2758    5.0968 C.3     1  UNL1       -0.0586
     19 H           4.0177    7.5195    5.0454 H       1  UNL1        0.0235
     20 H           3.6186    9.1317    5.6475 H       1  UNL1        0.0235
     21 H           2.9881    8.5962    4.0860 H       1  UNL1        0.0235
     22 C           1.4612    2.6790    5.2332 C.3     1  UNL1       -0.0197
     23 H           1.9039    2.7016    6.2339 H       1  UNL1        0.0344
     24 C           2.4760    2.0301    4.2850 C.3     1  UNL1       -0.0586
     25 H           3.4054    2.5996    4.2897 H       1  UNL1        0.0235
     26 H           2.0872    1.9987    3.2687 H       1  UNL1        0.0235
     27 H           2.6897    1.0097    4.5996 H       1  UNL1        0.0235
     28 C           0.1847    1.8382    5.2948 C.3     1  UNL1       -0.0586
     29 H           0.4064    0.8544    5.7051 H       1  UNL1        0.0235
     30 H          -0.2453    1.7052    4.3048 H       1  UNL1        0.0235
     31 H          -0.5627    2.3103    5.9283 H       1  UNL1        0.0235
     32 C           1.4659    4.7812    7.9801 C.3     1  UNL1        0.0770
     33 C          -0.0282    4.9869    7.7052 C.3     1  UNL1       -0.0397
     34 H          -0.4011    4.2696    6.9799 H       1  UNL1        0.0252
     35 H          -0.1784    5.9833    7.2968 H       1  UNL1        0.0252
     36 H          -0.6011    4.9027    8.6259 H       1  UNL1        0.0252
     37 C           1.8639    5.7448    9.1298 C.3     1  UNL1       -0.0397
     38 H           1.5819    6.7634    8.8737 H       1  UNL1        0.0252
     39 H           2.9434    5.7037    9.2994 H       1  UNL1        0.0252
     40 H           1.3511    5.4620   10.0484 H       1  UNL1        0.0252
     41 C           1.7681    3.3744    8.5148 C.3     1  UNL1        0.1227
     42 C           0.8070    2.4323    8.8665 C.2     1  UNL1       -0.0545
     43 H          -0.2445    2.6505    8.7858 H       1  UNL1        0.0595
     44 C           1.2254    1.1857    9.3063 C.2     1  UNL1       -0.0617
     45 H           0.4967    0.4298    9.5638 H       1  UNL1        0.0616
     46 C           2.5770    0.9166    9.4086 C.2     1  UNL1       -0.0387
     47 H           2.9315   -0.0484    9.7344 H       1  UNL1        0.0637
     48 C           3.4875    1.9153    9.0615 C.2     1  UNL1        0.0566
     49 C           4.9499    1.7197    9.1563 C.ar    1  UNL1        0.0037
     50 C           5.5339    1.4038   10.3829 C.ar    1  UNL1       -0.0412
     51 C           6.9138    1.2646   10.4682 C.ar    1  UNL1       -0.0582
     52 H           7.3659    1.0216   11.4185 H       1  UNL1        0.0620
     53 C           7.7077    1.4495    9.3486 C.ar    1  UNL1       -0.0612
     54 H           8.7804    1.3405    9.4265 H       1  UNL1        0.0618
     55 C           7.1351    1.7703    8.1385 C.ar    1  UNL1       -0.0579
     56 H           7.7637    1.9140    7.2688 H       1  UNL1        0.0620
     57 C           5.7468    1.9164    7.9985 C.ar    1  UNL1       -0.0378
     58 C           4.7159    1.2389   11.6336 C.3     1  UNL1       -0.0391
     59 H           5.3055    1.5232   12.5027 H       1  UNL1        0.0278
     60 H           4.4175    0.1980   11.7630 H       1  UNL1        0.0278
     61 H           3.8171    1.8506   11.6071 H       1  UNL1        0.0278
     62 C           5.1606    2.2510    6.7011 C.3     1  UNL1       -0.0230
     63 H           4.2396    1.6842    6.5275 H       1  UNL1        0.0317
     64 H           5.8687    2.0370    5.8925 H       1  UNL1        0.0317
@<TRIPOS>BOND
     1     8     7    1
     2    10     9    1
     3     7     9   ar
     4     7     5   ar
     5    26    24    1
     6     6     5    1
     7     9    11   ar
     8     5     4   ar
     9    21    18    1
    10    24    25    1
    11    24    27    1
    12    24    22    1
    13    30    28    1
    14    11    22    1
    15    11     3   ar
    16     4     3   ar
    17     4    12    1
    18    16    14    1
    19    19    18    1
    20    18    20    1
    21    18    12    1
    22    22    28    1
    23    22    23    1
    24    28    29    1
    25    28    31    1
    26     3     1    1
    27    12    14    1
    28    12    13    1
    29    64    62    1
    30    14    15    1
    31    14    17    1
    32    63    62    1
    33    62    57    1
    34     1    32    1
    35    34    33    1
    36    56    55    1
    37    35    33    1
    38    33    32    1
    39    33    36    1
    40    32    41    1
    41    32    37    1
    42    57    55   ar
    43    57    49   ar
    44    55    53   ar
    45    41     2    1
    46    41    42    1
    47     2    48    1
    48    43    42    1
    49    42    44    2
    50    38    37    1
    51    48    49    1
    52    48    46    2
    53    37    39    1
    54    37    40    1
    55    49    50   ar
    56    44    46    1
    57    44    45    1
    58    53    54    1
    59    53    51   ar
    60    46    47    1
    61    50    51   ar
    62    50    58    1
    63    51    52    1
    64    61    58    1
    65    58    60    1
    66    58    59    1
