@<TRIPOS>MOLECULE
1,41,42
 42 44 0 0 0
SMALL
GASTEIGER

@<TRIPOS>ATOM
      1 C           6.3326    8.1359   16.3407 C.3     1  UNL1        0.2052
      2 C           8.3106    9.1583   15.4731 C.ar    1  UNL1        0.0508
      3 C           9.2911   10.0405   15.9322 C.ar    1  UNL1       -0.0388
      4 H           9.4533   10.1271   16.9984 H       1  UNL1        0.0637
      5 C          10.0290   10.7956   15.0427 C.ar    1  UNL1       -0.0570
      6 H          10.7819   11.4743   15.4187 H       1  UNL1        0.0621
      7 C           9.8221   10.6950   13.6726 C.ar    1  UNL1       -0.0503
      8 C           8.8437    9.8187   13.2176 C.ar    1  UNL1       -0.0570
      9 H           8.6673    9.7242   12.1549 H       1  UNL1        0.0621
     10 C           8.0953    9.0622   14.0965 C.ar    1  UNL1       -0.0388
     11 H           7.3468    8.3769   13.7223 H       1  UNL1        0.0637
     12 C          10.6483   11.4871   12.7044 C.3     1  UNL1       -0.0397
     13 H          11.0912   12.3538   13.1895 H       1  UNL1        0.0278
     14 H          10.0438   11.8234   11.8643 H       1  UNL1        0.0278
     15 H          11.4565   10.8694   12.3101 H       1  UNL1        0.0278
     16 C           5.4261    8.9520   15.5010 C.ar    1  UNL1        0.0010
     17 C           5.5093   10.3409   15.5066 C.ar    1  UNL1       -0.0547
     18 H           6.2296   10.8293   16.1469 H       1  UNL1        0.0622
     19 C           4.6654   11.0887   14.7064 C.ar    1  UNL1       -0.0614
     20 H           4.7315   12.1666   14.7188 H       1  UNL1        0.0618
     21 C           3.7407   10.4587   13.8903 C.ar    1  UNL1       -0.0617
     22 H           3.0845   11.0452   13.2643 H       1  UNL1        0.0618
     23 C           3.6590    9.0759   13.8774 C.ar    1  UNL1       -0.0614
     24 H           2.9408    8.5813   13.2402 H       1  UNL1        0.0618
     25 C           4.4942    8.3221   14.6801 C.ar    1  UNL1       -0.0547
     26 H           4.4393    7.2425   14.6676 H       1  UNL1        0.0622
     27 C           4.5704    6.9142   17.3924 C.ar    1  UNL1        0.0508
     28 C           3.6848    7.9481   17.7018 C.ar    1  UNL1       -0.0388
     29 H           4.0303    8.9716   17.6867 H       1  UNL1        0.0637
     30 C           2.3770    7.6671   18.0470 C.ar    1  UNL1       -0.0570
     31 H           1.7077    8.4829   18.2823 H       1  UNL1        0.0621
     32 C           1.9088    6.3612   18.1018 C.ar    1  UNL1       -0.0503
     33 C           2.7991    5.3319   17.8127 C.ar    1  UNL1       -0.0570
     34 H           2.4581    4.3067   17.8573 H       1  UNL1        0.0621
     35 C           4.1079    5.5983   17.4711 C.ar    1  UNL1       -0.0388
     36 H           4.7962    4.7959   17.2410 H       1  UNL1        0.0637
     37 C           0.4930    6.0580   18.4915 C.3     1  UNL1       -0.0397
     38 H          -0.1321    6.9432   18.4032 H       1  UNL1        0.0278
     39 H           0.4519    5.7138   19.5256 H       1  UNL1        0.0278
     40 H           0.0802    5.2715   17.8624 H       1  UNL1        0.0278
     41 N           5.9139    7.1222   17.0903 N.pl3   1  UNL1       -0.2148
     42 N           7.6455    8.3507   16.3972 N.pl3   1  UNL1       -0.2148
@<TRIPOS>BOND
     1    14    12    1
     2     9     8    1
     3    15    12    1
     4    12    13    1
     5    12     7    1
     6     8     7   ar
     7     8    10   ar
     8    24    23    1
     9    22    21    1
    10     7     5   ar
    11    11    10    1
    12    23    21   ar
    13    23    25   ar
    14    21    19   ar
    15    10     2   ar
    16    26    25    1
    17    25    16   ar
    18    19    20    1
    19    19    17   ar
    20     5     6    1
    21     5     3   ar
    22     2     3   ar
    23     2    42    1
    24    16    17   ar
    25    16     1    1
    26    17    18    1
    27     3     4    1
    28     1    42    1
    29     1    41    1
    30    41    27    1
    31    36    35    1
    32    27    35   ar
    33    27    28   ar
    34    35    33   ar
    35    29    28    1
    36    28    30   ar
    37    33    34    1
    38    33    32   ar
    39    40    37    1
    40    30    32   ar
    41    30    31    1
    42    32    37    1
    43    38    37    1
    44    37    39    1
