@<TRIPOS>MOLECULE
1,41,42
 42 44 0 0 0
SMALL
GASTEIGER

@<TRIPOS>ATOM
      1 C           8.8533    5.2817   15.0727 C.3     1  UNL1        0.2052
      2 C          11.0105    6.1781   15.5662 C.ar    1  UNL1        0.0508
      3 C          11.5878    7.4019   15.9128 C.ar    1  UNL1       -0.0388
      4 H          10.9541    8.1659   16.3445 H       1  UNL1        0.0637
      5 C          12.9283    7.6370   15.6910 C.ar    1  UNL1       -0.0570
      6 H          13.3518    8.5952   15.9582 H       1  UNL1        0.0621
      7 C          13.7451    6.6597   15.1329 C.ar    1  UNL1       -0.0503
      8 C          13.1746    5.4356   14.8087 C.ar    1  UNL1       -0.0570
      9 H          13.7935    4.6554   14.3874 H       1  UNL1        0.0621
     10 C          11.8323    5.1898   15.0204 C.ar    1  UNL1       -0.0388
     11 H          11.4172    4.2213   14.7799 H       1  UNL1        0.0637
     12 C          15.1982    6.9264   14.8775 C.3     1  UNL1       -0.0397
     13 H          15.3293    7.3856   13.8966 H       1  UNL1        0.0278
     14 H          15.7713    6.0022   14.8949 H       1  UNL1        0.0278
     15 H          15.6038    7.6069   15.6229 H       1  UNL1        0.0278
     16 C           9.1846    4.9434   13.6692 C.ar    1  UNL1        0.0010
     17 C           8.9710    3.6593   13.1778 C.ar    1  UNL1       -0.0547
     18 H           8.5786    2.8964   13.8345 H       1  UNL1        0.0622
     19 C           9.2714    3.3617   11.8615 C.ar    1  UNL1       -0.0614
     20 H           9.1078    2.3616   11.4876 H       1  UNL1        0.0618
     21 C           9.7775    4.3420   11.0246 C.ar    1  UNL1       -0.0617
     22 H          10.0090    4.1078    9.9959 H       1  UNL1        0.0618
     23 C           9.9851    5.6236   11.5078 C.ar    1  UNL1       -0.0614
     24 H          10.3763    6.3914   10.8566 H       1  UNL1        0.0618
     25 C           9.6938    5.9265   12.8245 C.ar    1  UNL1       -0.0547
     26 H           9.8465    6.9273   13.2038 H       1  UNL1        0.0622
     27 C           6.6025    4.5142   14.8861 C.ar    1  UNL1        0.0508
     28 C           5.8355    3.4396   15.3420 C.ar    1  UNL1       -0.0388
     29 H           6.1603    2.9080   16.2265 H       1  UNL1        0.0637
     30 C           4.6920    3.0558   14.6722 C.ar    1  UNL1       -0.0570
     31 H           4.1132    2.2205   15.0413 H       1  UNL1        0.0621
     32 C           4.2697    3.7276   13.5310 C.ar    1  UNL1       -0.0503
     33 C           5.0359    4.7926   13.0743 C.ar    1  UNL1       -0.0570
     34 H           4.7263    5.3310   12.1889 H       1  UNL1        0.0621
     35 C           6.1845    5.1832   13.7335 C.ar    1  UNL1       -0.0388
     36 H           6.7590    6.0244   13.3696 H       1  UNL1        0.0637
     37 C           3.0042    3.3310   12.8321 C.3     1  UNL1       -0.0397
     38 H           2.1496    3.8213   13.3006 H       1  UNL1        0.0278
     39 H           2.8481    2.2561   12.8931 H       1  UNL1        0.0278
     40 H           3.0299    3.6248   11.7852 H       1  UNL1        0.0278
     41 N           9.6655    5.9765   15.8620 N.pl3   1  UNL1       -0.2148
     42 N           7.7002    4.9320   15.6390 N.pl3   1  UNL1       -0.2148
@<TRIPOS>BOND
     1    22    21    1
     2    24    23    1
     3    21    23   ar
     4    21    19   ar
     5    20    19    1
     6    23    25   ar
     7    40    37    1
     8    19    17   ar
     9    34    33    1
    10    25    26    1
    11    25    16   ar
    12    37    39    1
    13    37    38    1
    14    37    32    1
    15    33    32   ar
    16    33    35   ar
    17    17    16   ar
    18    17    18    1
    19    36    35    1
    20    32    30   ar
    21    16     1    1
    22    35    27   ar
    23    13    12    1
    24     9     8    1
    25    30    31    1
    26    30    28   ar
    27    11    10    1
    28     8    10   ar
    29     8     7   ar
    30    12    14    1
    31    12     7    1
    32    12    15    1
    33    27    28   ar
    34    27    42    1
    35    10     2   ar
    36     1    42    1
    37     1    41    1
    38     7     5   ar
    39    28    29    1
    40     2    41    1
    41     2     3   ar
    42     5     3   ar
    43     5     6    1
    44     3     4    1
