@<TRIPOS>MOLECULE
2,3,7
 45 44 0 0 0
SMALL
GASTEIGER

@<TRIPOS>ATOM
      1 SI         10.6321   11.3666    5.7139 Si      1  UNL1        0.0000
      2 N           9.2767    9.0661    3.1538 N.3     1  UNL1        0.0000
      3 N           7.9823   10.8492    3.1106 N.3     1  UNL1        0.0000
      4 C          10.3680   11.2328    3.7954 C.3     1  UNL1        0.0000
      5 H          10.2451   12.2349    3.3937 H       1  UNL1        0.0000
      6 H          11.2789   10.8383    3.3526 H       1  UNL1        0.0000
      7 C           9.2089   10.3838    3.3458 C.3     1  UNL1        0.0000
      8 C           7.5207   12.2330    3.1037 C.3     1  UNL1        0.0000
      9 C          10.4583    8.2160    3.0610 C.3     1  UNL1        0.0000
     10 C           5.9857   12.1533    3.0141 C.3     1  UNL1        0.0000
     11 H           5.6850   11.5357    2.1625 H       1  UNL1        0.0000
     12 H           5.5569   13.1457    2.8891 H       1  UNL1        0.0000
     13 H           5.5923   11.7123    3.9271 H       1  UNL1        0.0000
     14 C           9.3261   10.3262    6.6384 C.3     1  UNL1        0.0000
     15 H           8.6759    9.8134    5.9333 H       1  UNL1        0.0000
     16 H           8.7017   10.9420    7.2795 H       1  UNL1        0.0000
     17 H           9.7891    9.5750    7.2721 H       1  UNL1        0.0000
     18 C           8.0282   12.9795    1.8556 C.3     1  UNL1        0.0000
     19 H           9.1143   13.0107    1.8232 H       1  UNL1        0.0000
     20 H           7.6559   14.0019    1.8584 H       1  UNL1        0.0000
     21 H           7.6777   12.4787    0.9556 H       1  UNL1        0.0000
     22 C           7.8438   13.0401    4.3708 C.3     1  UNL1        0.0000
     23 H           7.7721   12.3982    5.2440 H       1  UNL1        0.0000
     24 H           7.1286   13.8532    4.4787 H       1  UNL1        0.0000
     25 H           8.8345   13.4743    4.3290 H       1  UNL1        0.0000
     26 C          10.5801   13.1902    6.3073 C.3     1  UNL1        0.0000
     27 H          11.1429   13.2860    7.2311 H       1  UNL1        0.0000
     28 H           9.5769   13.5482    6.5094 H       1  UNL1        0.0000
     29 H          11.0343   13.8664    5.5882 H       1  UNL1        0.0000
     30 C           9.9239    6.7731    2.9774 C.3     1  UNL1        0.0000
     31 H           9.4031    6.5286    3.9009 H       1  UNL1        0.0000
     32 H          10.7439    6.0705    2.8400 H       1  UNL1        0.0000
     33 H           9.2313    6.6679    2.1368 H       1  UNL1        0.0000
     34 C          11.2353    8.5066    1.7635 C.3     1  UNL1        0.0000
     35 H          10.5799    8.3697    0.9046 H       1  UNL1        0.0000
     36 H          12.0819    7.8290    1.6752 H       1  UNL1        0.0000
     37 H          11.6097    9.5270    1.7432 H       1  UNL1        0.0000
     38 C          12.4083   10.8263    6.1985 C.3     1  UNL1        0.0000
     39 H          12.7065   11.3314    7.1125 H       1  UNL1        0.0000
     40 H          13.1368   11.0931    5.4373 H       1  UNL1        0.0000
     41 H          12.4970    9.7612    6.3812 H       1  UNL1        0.0000
     42 C          11.4047    8.2633    4.2700 C.3     1  UNL1        0.0000
     43 H          12.0765    9.1105    4.2207 H       1  UNL1        0.0000
     44 H          12.0107    7.3597    4.2955 H       1  UNL1        0.0000
     45 H          10.8255    8.3174    5.1872 H       1  UNL1        0.0000
@<TRIPOS>BOND
     1    35    34    1
     2    21    18    1
     3    36    34    1
     4    37    34    1
     5    34     9    1
     6    19    18    1
     7    18    20    1
     8    18     8    1
     9    33    30    1
    10    11    10    1
    11    32    30    1
    12    12    10    1
    13    30     9    1
    14    30    31    1
    15    10     8    1
    16    10    13    1
    17     9     2    1
    18     9    42    1
    19     8     3    1
    20     8    22    1
    21     3     7    1
    22     2     7    1
    23     7     4    1
    24     6     4    1
    25     5     4    1
    26     4     1    1
    27    43    42    1
    28    42    44    1
    29    42    45    1
    30    25    22    1
    31    22    24    1
    32    22    23    1
    33    40    38    1
    34    29    26    1
    35     1    38    1
    36     1    26    1
    37     1    14    1
    38    15    14    1
    39    38    41    1
    40    38    39    1
    41    26    28    1
    42    26    27    1
    43    14    17    1
    44    14    16    1
