@<TRIPOS>MOLECULE
2,3,4
 39 38 0 0 0
SMALL
GASTEIGER

@<TRIPOS>ATOM
      1 SI          0.5147    7.7448   11.5430 Si      1  UNL1        0.0000
      2 N           3.2361    8.2484    8.9996 N.3     1  UNL1        0.0000
      3 C           2.9406    7.4844   10.0401 C.3     1  UNL1        0.0000
      4 N           3.1315    6.1896    9.8009 N.3     1  UNL1        0.0000
      5 C           2.4183    7.9951   11.3510 C.3     1  UNL1        0.0000
      6 H           2.6488    9.0550   11.4438 H       1  UNL1        0.0000
      7 H           2.9369    7.4866   12.1630 H       1  UNL1        0.0000
      8 C           3.0198    9.6756    8.9347 C.3     1  UNL1        0.0000
      9 H           3.1975   10.1656    9.9088 H       1  UNL1        0.0000
     10 C          -0.2553    6.9963    9.9643 C.3     1  UNL1        0.0000
     11 H           0.5231    6.6738    9.2764 H       1  UNL1        0.0000
     12 H          -0.8816    7.7107    9.4381 H       1  UNL1        0.0000
     13 H          -0.8728    6.1328   10.1947 H       1  UNL1        0.0000
     14 C           1.5884    9.9785    8.4797 C.3     1  UNL1        0.0000
     15 H           1.4207    9.5095    7.5138 H       1  UNL1        0.0000
     16 H           1.4333   11.0518    8.3882 H       1  UNL1        0.0000
     17 H           0.8727    9.5758    9.1906 H       1  UNL1        0.0000
     18 C           4.0135   10.2506    7.9207 C.3     1  UNL1        0.0000
     19 H           5.0358   10.0993    8.2621 H       1  UNL1        0.0000
     20 H           3.8461   11.3176    7.7855 H       1  UNL1        0.0000
     21 H           3.8840    9.7446    6.9618 H       1  UNL1        0.0000
     22 C           3.0055    5.1630   10.8112 C.3     1  UNL1        0.0000
     23 H           2.2898    5.4508   11.5938 H       1  UNL1        0.0000
     24 C          -0.2654    9.4409   11.9551 C.3     1  UNL1        0.0000
     25 H          -1.3469    9.3613   12.0046 H       1  UNL1        0.0000
     26 H          -0.0274   10.2040   11.2206 H       1  UNL1        0.0000
     27 H           0.0769    9.8012   12.9209 H       1  UNL1        0.0000
     28 C           0.1539    6.6033   13.0361 C.3     1  UNL1        0.0000
     29 H           0.7472    6.8760   13.9043 H       1  UNL1        0.0000
     30 H           0.3500    5.5577   12.8187 H       1  UNL1        0.0000
     31 H          -0.8908    6.6822   13.3210 H       1  UNL1        0.0000
     32 C           2.4894    3.8881   10.1372 C.3     1  UNL1        0.0000
     33 H           1.5025    4.0638    9.7127 H       1  UNL1        0.0000
     34 H           2.4192    3.0760   10.8578 H       1  UNL1        0.0000
     35 H           3.1705    3.5946    9.3349 H       1  UNL1        0.0000
     36 C           4.3712    4.8946   11.4610 C.3     1  UNL1        0.0000
     37 H           5.0823    4.5966   10.6910 H       1  UNL1        0.0000
     38 H           4.2960    4.1007   12.2007 H       1  UNL1        0.0000
     39 H           4.7446    5.7935   11.9488 H       1  UNL1        0.0000
@<TRIPOS>BOND
     1    21    18    1
     2    15    14    1
     3    20    18    1
     4    18    19    1
     5    18     8    1
     6    16    14    1
     7    14     8    1
     8    14    17    1
     9     8     2    1
    10     8     9    1
    11     2     3    1
    12    11    10    1
    13    35    32    1
    14    12    10    1
    15    33    32    1
    16     4     3    1
    17     4    22    1
    18    10    13    1
    19    10     1    1
    20     3     5    1
    21    32    22    1
    22    32    34    1
    23    37    36    1
    24    22    36    1
    25    22    23    1
    26    26    24    1
    27     5     6    1
    28     5     1    1
    29     5     7    1
    30    36    39    1
    31    36    38    1
    32     1    24    1
    33     1    28    1
    34    24    25    1
    35    24    27    1
    36    30    28    1
    37    28    31    1
    38    28    29    1
