@<TRIPOS>MOLECULE
4,5,6
 71 72 0 0 0
SMALL
GASTEIGER

@<TRIPOS>ATOM
      1 SI         -3.3604    4.3910   17.8978 Si      1  UNL1        0.0000
      2 SI         -4.2516    4.0981   15.6992 Si      1  UNL1        0.0000
      3 SI         -4.3952    3.0157   19.5360 Si      1  UNL1        0.0000
      4 N          -0.5870    3.6264   17.4176 N.3     1  UNL1        0.0000
      5 N          -0.8189    4.7765   19.2728 N.3     1  UNL1        0.0000
      6 C          -1.4459    4.2535   18.2199 C.3     1  UNL1        0.0000
      7 C          -0.9439    2.7735   16.3127 C.3     1  UNL1        0.0000
      8 H          -1.9849    2.9355   16.0012 H       1  UNL1        0.0000
      9 C          -0.0233    3.0662   15.1204 C.3     1  UNL1        0.0000
     10 H           1.0180    2.9808   15.4436 H       1  UNL1        0.0000
     11 H          -0.1878    4.0948   14.7883 H       1  UNL1        0.0000
     12 C          -0.2687    2.0938   13.9723 C.3     1  UNL1        0.0000
     13 H          -1.2915    2.2095   13.6038 H       1  UNL1        0.0000
     14 H           0.4126    2.3202   13.1495 H       1  UNL1        0.0000
     15 C          -0.0646    0.6569   14.4391 C.3     1  UNL1        0.0000
     16 H          -0.2361   -0.0334   13.6109 H       1  UNL1        0.0000
     17 H           0.9654    0.5276   14.7783 H       1  UNL1        0.0000
     18 C          -1.0212    0.3437   15.5844 C.3     1  UNL1        0.0000
     19 H          -0.8736   -0.6831   15.9262 H       1  UNL1        0.0000
     20 H          -2.0508    0.4340   15.2299 H       1  UNL1        0.0000
     21 C          -0.7922    1.3045   16.7453 C.3     1  UNL1        0.0000
     22 H           0.2190    1.1549   17.1365 H       1  UNL1        0.0000
     23 H          -1.5002    1.1004   17.5548 H       1  UNL1        0.0000
     24 C          -1.4599    5.4284   20.3909 C.3     1  UNL1        0.0000
     25 H          -2.5454    5.2583   20.3691 H       1  UNL1        0.0000
     26 C          -0.9139    4.8298   21.6975 C.3     1  UNL1        0.0000
     27 H          -1.1122    3.7543   21.7169 H       1  UNL1        0.0000
     28 H           0.1704    4.9764   21.7282 H       1  UNL1        0.0000
     29 C          -1.5439    5.4983   22.9145 C.3     1  UNL1        0.0000
     30 H          -1.1320    5.0624   23.8276 H       1  UNL1        0.0000
     31 H          -2.6216    5.3131   22.9154 H       1  UNL1        0.0000
     32 C          -1.2868    7.0015   22.8928 C.3     1  UNL1        0.0000
     33 H          -1.7641    7.4736   23.7540 H       1  UNL1        0.0000
     34 H          -0.2124    7.1862   22.9599 H       1  UNL1        0.0000
     35 C          -1.8211    7.6091   21.6001 C.3     1  UNL1        0.0000
     36 H          -1.6126    8.6807   21.5786 H       1  UNL1        0.0000
     37 H          -2.9062    7.4786   21.5564 H       1  UNL1        0.0000
     38 C          -1.1769    6.9382   20.3920 C.3     1  UNL1        0.0000
     39 H          -1.5502    7.3856   19.4695 H       1  UNL1        0.0000
     40 H          -0.0961    7.0969   20.4283 H       1  UNL1        0.0000
     41 C          -5.9562    4.9681   15.6526 C.3     1  UNL1        0.0000
     42 H          -6.4963    4.7229   14.7421 H       1  UNL1        0.0000
     43 H          -5.8689    6.0490   15.6954 H       1  UNL1        0.0000
     44 H          -6.5753    4.6571   16.4891 H       1  UNL1        0.0000
     45 C          -4.6277    2.2649   15.2813 C.3     1  UNL1        0.0000
     46 H          -5.6440    2.0083   15.5616 H       1  UNL1        0.0000
     47 H          -3.9666    1.5764   15.7982 H       1  UNL1        0.0000
     48 H          -4.5289    2.0737   14.2164 H       1  UNL1        0.0000
     49 C          -3.2385    4.8339   14.2376 C.3     1  UNL1        0.0000
     50 H          -2.6420    4.0769   13.7380 H       1  UNL1        0.0000
     51 H          -2.5558    5.6102   14.5715 H       1  UNL1        0.0000
     52 H          -3.8920    5.2777   13.4906 H       1  UNL1        0.0000
     53 C          -5.1502    3.9963   21.0004 C.3     1  UNL1        0.0000
     54 H          -5.7877    4.7975   20.6377 H       1  UNL1        0.0000
     55 H          -4.3893    4.4452   21.6315 H       1  UNL1        0.0000
     56 H          -5.7605    3.3572   21.6335 H       1  UNL1        0.0000
     57 C          -5.8380    2.0184   18.7807 C.3     1  UNL1        0.0000
     58 H          -6.3548    1.4366   19.5383 H       1  UNL1        0.0000
     59 H          -5.4945    1.3274   18.0187 H       1  UNL1        0.0000
     60 H          -6.5699    2.6750   18.3216 H       1  UNL1        0.0000
     61 C          -3.1669    1.7369   20.2656 C.3     1  UNL1        0.0000
     62 H          -3.5391    1.2752   21.1760 H       1  UNL1        0.0000
     63 H          -2.2178    2.2105   20.5013 H       1  UNL1        0.0000
     64 H          -2.9679    0.9402   19.5538 H       1  UNL1        0.0000
     65 C          -3.9092    6.2306   18.1917 C.3     1  UNL1        0.0000
     66 H          -4.9896    6.2709   18.0481 H       1  UNL1        0.0000
     67 H          -3.7350    6.5584   19.2141 H       1  UNL1        0.0000
     68 C          -3.2533    7.2284   17.2425 C.3     1  UNL1        0.0000
     69 H          -2.1675    7.1525   17.2904 H       1  UNL1        0.0000
     70 H          -3.5317    8.2507   17.4977 H       1  UNL1        0.0000
     71 H          -3.5581    7.0438   16.2155 H       1  UNL1        0.0000
@<TRIPOS>BOND
     1    14    12    1
     2    52    49    1
     3    13    12    1
     4    16    15    1
     5    50    49    1
     6    12    15    1
     7    12     9    1
     8    48    45    1
     9    49    51    1
    10    49     2    1
    11    15    17    1
    12    15    18    1
    13    42    41    1
    14    11     9    1
    15     9    10    1
    16     9     7    1
    17    20    18    1
    18    45    46    1
    19    45     2    1
    20    45    47    1
    21    18    19    1
    22    18    21    1
    23    41    43    1
    24    41     2    1
    25    41    44    1
    26     2     1    1
    27     8     7    1
    28    71    68    1
    29     7    21    1
    30     7     4    1
    31    21    22    1
    32    21    23    1
    33    68    69    1
    34    68    70    1
    35    68    65    1
    36     4     6    1
    37     1    65    1
    38     1     6    1
    39     1     3    1
    40    59    57    1
    41    66    65    1
    42    65    67    1
    43     6     5    1
    44    60    57    1
    45    57     3    1
    46    57    58    1
    47     5    24    1
    48    39    38    1
    49     3    61    1
    50     3    53    1
    51    64    61    1
    52    61    63    1
    53    61    62    1
    54    25    24    1
    55    24    38    1
    56    24    26    1
    57    38    40    1
    58    38    35    1
    59    54    53    1
    60    53    55    1
    61    53    56    1
    62    37    35    1
    63    36    35    1
    64    35    32    1
    65    26    27    1
    66    26    28    1
    67    26    29    1
    68    32    29    1
    69    32    34    1
    70    32    33    1
    71    29    31    1
    72    29    30    1
