@<TRIPOS>MOLECULE
4,5,6
 57 56 0 0 0
SMALL
GASTEIGER

@<TRIPOS>ATOM
      1 SI         11.9132    2.5876    6.9463 Si      1  UNL1        0.0000
      2 SI         10.6791    1.9383    4.9943 Si      1  UNL1        0.0000
      3 SI         11.0620    1.4790    8.8717 Si      1  UNL1        0.0000
      4 N          14.6294    3.1117    7.8636 N.3     1  UNL1        0.0000
      5 N          14.5941    1.6941    6.1890 N.3     1  UNL1        0.0000
      6 C          13.8588    2.4533    6.9989 C.3     1  UNL1        0.0000
      7 C          14.1501    3.9068    8.9708 C.3     1  UNL1        0.0000
      8 H          13.0671    3.7756    9.0983 H       1  UNL1        0.0000
      9 C          14.8407    3.4278   10.2552 C.3     1  UNL1        0.0000
     10 H          14.6519    2.3663   10.4138 H       1  UNL1        0.0000
     11 H          14.4666    3.9833   11.1125 H       1  UNL1        0.0000
     12 H          15.9175    3.5846   10.1874 H       1  UNL1        0.0000
     13 C          14.4608    5.3928    8.7511 C.3     1  UNL1        0.0000
     14 H          15.5366    5.5488    8.6917 H       1  UNL1        0.0000
     15 H          14.0760    5.9813    9.5808 H       1  UNL1        0.0000
     16 H          14.0070    5.7508    7.8302 H       1  UNL1        0.0000
     17 C          14.0705    0.8011    5.1868 C.3     1  UNL1        0.0000
     18 H          12.9999    0.9843    5.0314 H       1  UNL1        0.0000
     19 C          14.2432   -0.6544    5.6415 C.3     1  UNL1        0.0000
     20 H          15.2990   -0.8933    5.7617 H       1  UNL1        0.0000
     21 H          13.8245   -1.3314    4.9005 H       1  UNL1        0.0000
     22 H          13.7344   -0.8148    6.5907 H       1  UNL1        0.0000
     23 C          14.7999    1.0314    3.8590 C.3     1  UNL1        0.0000
     24 H          14.6680    2.0612    3.5313 H       1  UNL1        0.0000
     25 H          14.4048    0.3678    3.0933 H       1  UNL1        0.0000
     26 H          15.8657    0.8332    3.9688 H       1  UNL1        0.0000
     27 C          11.4063    2.3605    3.2622 C.3     1  UNL1        0.0000
     28 H          11.8905    1.4994    2.8113 H       1  UNL1        0.0000
     29 H          12.1463    3.1539    3.3147 H       1  UNL1        0.0000
     30 H          10.6279    2.6911    2.5791 H       1  UNL1        0.0000
     31 C           8.9795    2.8132    5.0766 C.3     1  UNL1        0.0000
     32 H           9.0661    3.8833    4.9158 H       1  UNL1        0.0000
     33 H           8.5057    2.6651    6.0415 H       1  UNL1        0.0000
     34 H           8.3016    2.4267    4.3203 H       1  UNL1        0.0000
     35 C          10.3040    0.0605    4.9864 C.3     1  UNL1        0.0000
     36 H           9.6937   -0.2072    4.1284 H       1  UNL1        0.0000
     37 H           9.7591   -0.2386    5.8759 H       1  UNL1        0.0000
     38 H          11.2057   -0.5416    4.9421 H       1  UNL1        0.0000
     39 C           9.1732    1.2617    8.6871 C.3     1  UNL1        0.0000
     40 H           8.9110    0.7347    7.7763 H       1  UNL1        0.0000
     41 H           8.6717    2.2244    8.6642 H       1  UNL1        0.0000
     42 H           8.7566    0.7003    9.5181 H       1  UNL1        0.0000
     43 C          11.8415   -0.2675    8.9772 C.3     1  UNL1        0.0000
     44 H          11.5394   -0.8013    9.8737 H       1  UNL1        0.0000
     45 H          12.9269   -0.2090    8.9820 H       1  UNL1        0.0000
     46 H          11.5528   -0.8734    8.1236 H       1  UNL1        0.0000
     47 C          11.2740    2.2907   10.5986 C.3     1  UNL1        0.0000
     48 H          10.6780    1.7726   11.3467 H       1  UNL1        0.0000
     49 H          10.9448    3.3263   10.5872 H       1  UNL1        0.0000
     50 H          12.3041    2.2784   10.9395 H       1  UNL1        0.0000
     51 C          11.4454    4.4704    7.0009 C.3     1  UNL1        0.0000
     52 H          10.3570    4.5352    6.9876 H       1  UNL1        0.0000
     53 H          11.7602    4.9549    7.9231 H       1  UNL1        0.0000
     54 C          11.9985    5.2625    5.8206 C.3     1  UNL1        0.0000
     55 H          13.0816    5.1596    5.7623 H       1  UNL1        0.0000
     56 H          11.7644    6.3225    5.9151 H       1  UNL1        0.0000
     57 H          11.5750    4.9063    4.8845 H       1  UNL1        0.0000
@<TRIPOS>BOND
     1    30    27    1
     2    28    27    1
     3    25    23    1
     4    27    29    1
     5    27     2    1
     6    24    23    1
     7    23    26    1
     8    23    17    1
     9    36    35    1
    10    34    31    1
    11    57    54    1
    12    21    19    1
    13    32    31    1
    14    38    35    1
    15    35     2    1
    16    35    37    1
    17     2    31    1
    18     2     1    1
    19    18    17    1
    20    31    33    1
    21    17    19    1
    22    17     5    1
    23    19    20    1
    24    19    22    1
    25    55    54    1
    26    54    56    1
    27    54    51    1
    28     5     6    1
    29     1     6    1
    30     1    51    1
    31     1     3    1
    32    52    51    1
    33     6     4    1
    34    51    53    1
    35    40    39    1
    36    16    13    1
    37     4     7    1
    38    46    43    1
    39    41    39    1
    40    39     3    1
    41    39    42    1
    42    14    13    1
    43    13     7    1
    44    13    15    1
    45     3    43    1
    46     3    47    1
    47     7     8    1
    48     7     9    1
    49    43    45    1
    50    43    44    1
    51    12     9    1
    52     9    10    1
    53     9    11    1
    54    49    47    1
    55    47    50    1
    56    47    48    1
