@<TRIPOS>MOLECULE
1,2,17
 46 47 0 0 0
SMALL
GASTEIGER

@<TRIPOS>ATOM
      1 N          29.2342   12.5194    4.2262 N.3     1  UNL1        0.0000
      2 N          30.5569   10.8180    3.7985 N.3     1  UNL1        0.0000
      3 N          32.4963   10.9962    2.1510 N.pl3   1  UNL1        0.0000
      4 H          31.8647   10.3607    1.6520 H       1  UNL1        0.0000
      5 SI         28.2132   13.6734    5.0388 Si      1  UNL1        0.0000
      6 C          29.2653   10.0927    6.6979 C.ar    1  UNL1        0.0000
      7 H          28.6603    9.4782    6.0469 H       1  UNL1        0.0000
      8 C          29.3389    9.8235    8.0537 C.ar    1  UNL1        0.0000
      9 H          28.7873    8.9918    8.4664 H       1  UNL1        0.0000
     10 C          30.1182   10.6171    8.8786 C.ar    1  UNL1        0.0000
     11 H          30.1734   10.4040    9.9360 H       1  UNL1        0.0000
     12 C          30.8291   11.6818    8.3481 C.ar    1  UNL1        0.0000
     13 H          31.4429   12.2958    8.9902 H       1  UNL1        0.0000
     14 C          30.7534   11.9639    6.9957 C.ar    1  UNL1        0.0000
     15 H          31.3064   12.7870    6.5646 H       1  UNL1        0.0000
     16 C          29.9624   11.1716    6.1690 C.ar    1  UNL1        0.0000
     17 C          29.9016   11.4951    4.7233 C.3     1  UNL1        0.0000
     18 C          31.5955    9.8597    4.0885 C.3     1  UNL1        0.0000
     19 H          31.3293    8.8993    3.6242 H       1  UNL1        0.0000
     20 H          31.7433    9.7028    5.1662 H       1  UNL1        0.0000
     21 C          32.8780   10.4145    3.4431 C.3     1  UNL1        0.0000
     22 H          33.2818   11.2066    4.0829 H       1  UNL1        0.0000
     23 H          33.6315    9.6222    3.3225 H       1  UNL1        0.0000
     24 C          33.5219   11.4309    1.2856 C.ar    1  UNL1        0.0000
     25 C          33.3821   11.2169   -0.0873 C.ar    1  UNL1        0.0000
     26 H          32.5041   10.7039   -0.4574 H       1  UNL1        0.0000
     27 C          34.3323   11.6959   -0.9685 C.ar    1  UNL1        0.0000
     28 H          34.2095   11.5289   -2.0286 H       1  UNL1        0.0000
     29 C          35.4409   12.3804   -0.4954 C.ar    1  UNL1        0.0000
     30 H          36.1877   12.7485   -1.1833 H       1  UNL1        0.0000
     31 C          35.5861   12.5893    0.8660 C.ar    1  UNL1        0.0000
     32 H          36.4441   13.1279    1.2398 H       1  UNL1        0.0000
     33 C          34.6388   12.1189    1.7577 C.ar    1  UNL1        0.0000
     34 H          34.7486   12.3207    2.8119 H       1  UNL1        0.0000
     35 C          26.7617   13.9690    3.8291 C.3     1  UNL1        0.0000
     36 H          27.1162   14.2630    2.8456 H       1  UNL1        0.0000
     37 H          26.1120   14.7563    4.1967 H       1  UNL1        0.0000
     38 H          26.1586   13.0721    3.7109 H       1  UNL1        0.0000
     39 C          27.4472   13.0301    6.6705 C.3     1  UNL1        0.0000
     40 H          27.0164   12.0419    6.5481 H       1  UNL1        0.0000
     41 H          26.6516   13.6977    6.9821 H       1  UNL1        0.0000
     42 H          28.1681   12.9771    7.4787 H       1  UNL1        0.0000
     43 C          29.2625   15.2287    5.4263 C.3     1  UNL1        0.0000
     44 H          29.7381   15.1597    6.4015 H       1  UNL1        0.0000
     45 H          28.6492   16.1239    5.4213 H       1  UNL1        0.0000
     46 H          30.0466   15.3651    4.6823 H       1  UNL1        0.0000
@<TRIPOS>BOND
     1    28    27    1
     2    30    29    1
     3    27    29   ar
     4    27    25   ar
     5    29    31   ar
     6    26    25    1
     7    25    24   ar
     8    31    32    1
     9    31    33   ar
    10    24    33   ar
    11    24     3    1
    12     4     3    1
    13    33    34    1
    14     3    21    1
    15    36    35    1
    16    23    21    1
    17    21    22    1
    18    21    18    1
    19    19    18    1
    20    38    35    1
    21     2    18    1
    22     2    17    1
    23    35    37    1
    24    35     5    1
    25    18    20    1
    26     1    17    1
    27     1     5    1
    28    46    43    1
    29    17    16    1
    30     5    43    1
    31     5    39    1
    32    45    43    1
    33    43    44    1
    34     7     6    1
    35    16     6   ar
    36    16    14   ar
    37    40    39    1
    38    15    14    1
    39    39    41    1
    40    39    42    1
    41     6     8   ar
    42    14    12   ar
    43     8     9    1
    44     8    10   ar
    45    12    10   ar
    46    12    13    1
    47    10    11    1
