@<TRIPOS>MOLECULE
1,13,21
 28 28 0 0 0
SMALL
GASTEIGER

@<TRIPOS>ATOM
      1 C           3.3246    5.9524    3.1296 C.3     1  UNL1        0.1660
      2 C           2.6397    5.0328    2.1815 C.ar    1  UNL1       -0.0068
      3 C           1.2911    5.2091    1.8875 C.ar    1  UNL1       -0.0553
      4 H           0.7605    6.0247    2.3594 H       1  UNL1        0.0621
      5 C           0.6587    4.3546    1.0018 C.ar    1  UNL1       -0.0614
      6 H          -0.3878    4.4971    0.7747 H       1  UNL1        0.0618
      7 C           1.3635    3.3208    0.4068 C.ar    1  UNL1       -0.0617
      8 H           0.8676    2.6549   -0.2841 H       1  UNL1        0.0618
      9 C           2.7049    3.1408    0.6990 C.ar    1  UNL1       -0.0614
     10 H           3.2567    2.3351    0.2370 H       1  UNL1        0.0618
     11 C           3.3444    3.9930    1.5832 C.ar    1  UNL1       -0.0553
     12 H           4.3920    3.8558    1.8141 H       1  UNL1        0.0621
     13 N           4.0147    7.0306    2.7643 N.3     1  UNL1       -0.2100
     14 C           4.0947    7.4593    1.3926 C.3     1  UNL1        0.0136
     15 H           4.2590    6.5931    0.7356 H       1  UNL1        0.0439
     16 H           4.9680    8.1169    1.3150 H       1  UNL1        0.0439
     17 C           2.8511    8.2249    0.9390 C.3     1  UNL1       -0.0509
     18 H           2.0127    7.5448    0.8078 H       1  UNL1        0.0242
     19 H           3.0417    8.7325   -0.0035 H       1  UNL1        0.0242
     20 H           2.5864    8.9561    1.7032 H       1  UNL1        0.0242
     21 N           3.4098    5.7496    4.4422 N.3     1  UNL1       -0.2100
     22 C           2.7751    4.6313    5.0886 C.3     1  UNL1        0.0136
     23 H           3.3307    4.4366    6.0136 H       1  UNL1        0.0439
     24 H           2.8455    3.7369    4.4527 H       1  UNL1        0.0439
     25 C           1.3121    4.9084    5.4349 C.3     1  UNL1       -0.0509
     26 H           1.2385    5.8821    5.9180 H       1  UNL1        0.0242
     27 H           0.9292    4.1389    6.1010 H       1  UNL1        0.0242
     28 H           0.7049    4.9268    4.5329 H       1  UNL1        0.0242
@<TRIPOS>BOND
     1     8     7    1
     2    19    17    1
     3    10     9    1
     4     7     9   ar
     5     7     5   ar
     6     9    11   ar
     7    15    14    1
     8     6     5    1
     9    18    17    1
    10    17    14    1
    11    17    20    1
    12     5     3   ar
    13    16    14    1
    14    14    13    1
    15    11    12    1
    16    11     2   ar
    17     3     2   ar
    18     3     4    1
    19     2     1    1
    20    13     1    1
    21     1    21    1
    22    21    22    1
    23    24    22    1
    24    28    25    1
    25    22    25    1
    26    22    23    1
    27    25    26    1
    28    25    27    1
