@<TRIPOS>MOLECULE
2,3,4
 73 77 0 0 0
SMALL
GASTEIGER

@<TRIPOS>ATOM
      1 P           8.1998    0.9282    3.1648 P.3     1  UNL1       -0.0125
      2 N          11.0269    1.7381    3.3449 N.pl3   1  UNL1       -0.2404
      3 N           8.7927    3.9650    3.9868 N.pl3   1  UNL1       -0.2460
      4 C          11.0042    1.1043    2.0886 C.3     1  UNL1        0.0924
      5 H          11.9819    1.1435    1.5872 H       1  UNL1        0.0590
      6 C          10.3743   -0.1961    1.9321 C.ar    1  UNL1       -0.0150
      7 C           9.1196   -0.4892    2.5039 C.ar    1  UNL1       -0.0096
      8 C           8.5745   -1.7632    2.3901 C.ar    1  UNL1       -0.0532
      9 H           7.6161   -1.9777    2.8430 H       1  UNL1        0.0624
     10 C           9.2412   -2.7544    1.6942 C.ar    1  UNL1       -0.0611
     11 H           8.8173   -3.7448    1.6223 H       1  UNL1        0.0618
     12 C          10.4457   -2.4599    1.0687 C.ar    1  UNL1       -0.0614
     13 H          10.9551   -3.2222    0.4968 H       1  UNL1        0.0618
     14 C          11.0013   -1.2042    1.1858 C.ar    1  UNL1       -0.0561
     15 H          11.9478   -0.9870    0.7097 H       1  UNL1        0.0621
     16 C          11.6377    1.2886    4.4764 C.ar    1  UNL1        0.0490
     17 C          11.6373    2.1385    5.5940 C.ar    1  UNL1       -0.0362
     18 H          11.1661    3.1073    5.4986 H       1  UNL1        0.0639
     19 C          12.2188    1.7515    6.7829 C.ar    1  UNL1       -0.0484
     20 C          12.8097    0.4938    6.8713 C.ar    1  UNL1       -0.0558
     21 H          13.2646    0.1849    7.8018 H       1  UNL1        0.0623
     22 C          12.8235   -0.3670    5.7828 C.ar    1  UNL1       -0.0484
     23 C          12.2427    0.0316    4.5905 C.ar    1  UNL1       -0.0362
     24 H          12.2474   -0.6312    3.7375 H       1  UNL1        0.0639
     25 C          12.2357    2.6765    7.9640 C.3     1  UNL1       -0.0396
     26 H          13.2520    3.0200    8.1578 H       1  UNL1        0.0278
     27 H          11.8819    2.1652    8.8575 H       1  UNL1        0.0278
     28 H          11.6090    3.5456    7.7819 H       1  UNL1        0.0278
     29 C          13.4796   -1.7125    5.8871 C.3     1  UNL1       -0.0396
     30 H          13.3978   -2.1067    6.8976 H       1  UNL1        0.0278
     31 H          14.5394   -1.6305    5.6432 H       1  UNL1        0.0278
     32 H          13.0280   -2.4179    5.1933 H       1  UNL1        0.0278
     33 C           7.8167    3.3213    4.8559 C.3     1  UNL1        0.0570
     34 H           6.9936    2.9659    4.2114 H       1  UNL1        0.0531
     35 H           7.3913    4.0569    5.5495 H       1  UNL1        0.0531
     36 C           8.3372    2.1303    5.6330 C.ar    1  UNL1       -0.0202
     37 C           8.5756    0.9331    4.9523 C.ar    1  UNL1       -0.0099
     38 C           9.0787   -0.1720    5.6243 C.ar    1  UNL1       -0.0532
     39 H           9.2754   -1.0843    5.0794 H       1  UNL1        0.0624
     40 C           9.3224   -0.1016    6.9844 C.ar    1  UNL1       -0.0611
     41 H           9.7187   -0.9595    7.5064 H       1  UNL1        0.0618
     42 C           9.0461    1.0657    7.6733 C.ar    1  UNL1       -0.0614
     43 H           9.2109    1.1166    8.7394 H       1  UNL1        0.0618
     44 C           8.5564    2.1740    7.0011 C.ar    1  UNL1       -0.0564
     45 H           8.3312    3.0740    7.5574 H       1  UNL1        0.0621
     46 C           9.2767    5.1873    4.4188 C.ar    1  UNL1        0.0486
     47 C           9.4943    6.2025    3.4751 C.ar    1  UNL1       -0.0362
     48 H           9.1835    6.0396    2.4482 H       1  UNL1        0.0639
     49 C          10.0344    7.4244    3.8398 C.ar    1  UNL1       -0.0484
     50 C          10.3405    7.6595    5.1739 C.ar    1  UNL1       -0.0558
     51 H          10.7613    8.6104    5.4670 H       1  UNL1        0.0623
     52 C          10.1024    6.6889    6.1391 C.ar    1  UNL1       -0.0484
     53 C           9.5734    5.4671    5.7594 C.ar    1  UNL1       -0.0362
     54 H           9.4138    4.7074    6.5091 H       1  UNL1        0.0639
     55 C          10.3024    8.4731    2.8021 C.3     1  UNL1       -0.0396
     56 H          11.3310    8.3859    2.4501 H       1  UNL1        0.0278
     57 H          10.1715    9.4712    3.2141 H       1  UNL1        0.0278
     58 H           9.6413    8.3534    1.9469 H       1  UNL1        0.0278
     59 C          10.4585    6.9478    7.5729 C.3     1  UNL1       -0.0396
     60 H          10.2378    7.9775    7.8460 H       1  UNL1        0.0278
     61 H          11.5258    6.7824    7.7246 H       1  UNL1        0.0278
     62 H           9.9141    6.2823    8.2391 H       1  UNL1        0.0278
     63 C           6.4863    0.2796    3.1690 C.ar    1  UNL1       -0.0147
     64 C           5.7155    0.1260    4.3153 C.ar    1  UNL1       -0.0535
     65 H           6.1439    0.3332    5.2861 H       1  UNL1        0.0624
     66 C           4.4035   -0.3046    4.2155 C.ar    1  UNL1       -0.0611
     67 H           3.8125   -0.4310    5.1112 H       1  UNL1        0.0618
     68 C           3.8481   -0.5743    2.9763 C.ar    1  UNL1       -0.0617
     69 H           2.8245   -0.9113    2.9042 H       1  UNL1        0.0618
     70 C           4.6067   -0.4068    1.8277 C.ar    1  UNL1       -0.0611
     71 H           4.1737   -0.6107    0.8592 H       1  UNL1        0.0618
     72 C           5.9144    0.0261    1.9231 C.ar    1  UNL1       -0.0535
     73 H           6.5147    0.1608    1.0325 H       1  UNL1        0.0624
@<TRIPOS>BOND
     1    13    12    1
     2    15    14    1
     3    71    70    1
     4    73    72    1
     5    12    14   ar
     6    12    10   ar
     7    14     6   ar
     8     5     4    1
     9    11    10    1
    10    10     8   ar
    11    70    72   ar
    12    70    68   ar
    13    72    63   ar
    14     6     4    1
    15     6     7   ar
    16    58    55    1
    17     4     2    1
    18     8     7   ar
    19     8     9    1
    20    48    47    1
    21    56    55    1
    22     7     1    1
    23    55    57    1
    24    55    49    1
    25    69    68    1
    26    68    66   ar
    27     1    63    1
    28     1    37    1
    29    63    64   ar
    30     2    16    1
    31    47    49   ar
    32    47    46   ar
    33    24    23    1
    34    49    50   ar
    35     3    46    1
    36     3    33    1
    37    34    33    1
    38    66    64   ar
    39    66    67    1
    40    64    65    1
    41    46    53   ar
    42    16    23   ar
    43    16    17   ar
    44    23    22   ar
    45    33    35    1
    46    33    36    1
    47    37    38   ar
    48    37    36   ar
    49    39    38    1
    50    50    51    1
    51    50    52   ar
    52    32    29    1
    53    18    17    1
    54    17    19   ar
    55    38    40   ar
    56    36    44   ar
    57    31    29    1
    58    53    52   ar
    59    53    54    1
    60    22    29    1
    61    22    20   ar
    62    29    30    1
    63    52    59    1
    64    19    20   ar
    65    19    25    1
    66    20    21    1
    67    40    41    1
    68    40    42   ar
    69    44    45    1
    70    44    42   ar
    71    59    61    1
    72    59    60    1
    73    59    62    1
    74    42    43    1
    75    28    25    1
    76    25    26    1
    77    25    27    1
