@<TRIPOS>MOLECULE
3,4,10
 38 38 0 0 0
SMALL
GASTEIGER

@<TRIPOS>ATOM
      1 SI         -2.1488   -0.2036   -1.5891 Si      1  UNL1        0.0000
      2 SI         -3.3926   -0.4300    3.2544 Si      1  UNL1        0.0000
      3 N          -3.2778   -0.1006   -0.2831 N.pl3   1  UNL1        0.0000
      4 N          -4.5386    0.0949    2.0911 N.pl3   1  UNL1        0.0000
      5 C          -4.3673   -0.9209   -0.1094 C.ar    1  UNL1        0.0000
      6 C          -4.8399   -1.8636   -1.0265 C.ar    1  UNL1        0.0000
      7 C          -5.9317   -2.6643   -0.7332 C.ar    1  UNL1        0.0000
      8 C          -6.5712   -2.5670    0.4902 C.ar    1  UNL1        0.0000
      9 C          -6.1149   -1.6572    1.4333 C.ar    1  UNL1        0.0000
     10 C          -5.0408   -0.8199    1.1569 C.ar    1  UNL1        0.0000
     11 C          -0.8974    1.1742   -1.1643 C.3     1  UNL1        0.0000
     12 C          -2.9373    0.2053   -3.2918 C.3     1  UNL1        0.0000
     13 C          -1.2679   -1.9024   -1.6556 C.3     1  UNL1        0.0000
     14 C          -3.3835    0.8932    4.6404 C.3     1  UNL1        0.0000
     15 C          -1.6336   -0.6017    2.4924 C.3     1  UNL1        0.0000
     16 C          -3.8667   -2.1193    4.0157 C.3     1  UNL1        0.0000
     17 H          -4.3367   -1.9647   -1.9759 H       1  UNL1        0.0000
     18 H          -6.2776   -3.3773   -1.4675 H       1  UNL1        0.0000
     19 H          -7.4119   -3.2047    0.7200 H       1  UNL1        0.0000
     20 H          -6.5727   -1.6020    2.4133 H       1  UNL1        0.0000
     21 H          -0.3806    1.5296   -2.0482 H       1  UNL1        0.0000
     22 H          -0.1438    0.8429   -0.4577 H       1  UNL1        0.0000
     23 H          -1.4430    2.0080   -0.7197 H       1  UNL1        0.0000
     24 H          -3.4374   -0.6472   -3.7420 H       1  UNL1        0.0000
     25 H          -2.1903    0.5516   -3.9990 H       1  UNL1        0.0000
     26 H          -3.6756    0.9963   -3.1759 H       1  UNL1        0.0000
     27 H          -0.5760   -1.9377   -2.4903 H       1  UNL1        0.0000
     28 H          -1.9670   -2.7244   -1.7712 H       1  UNL1        0.0000
     29 H          -0.6985   -2.0841   -0.7493 H       1  UNL1        0.0000
     30 H          -2.4346    0.8736    5.1641 H       1  UNL1        0.0000
     31 H          -4.1594    0.7067    5.3757 H       1  UNL1        0.0000
     32 H          -3.5293    1.8949    4.2474 H       1  UNL1        0.0000
     33 H          -0.8505   -0.5449    3.2429 H       1  UNL1        0.0000
     34 H          -1.4597    0.1839    1.7558 H       1  UNL1        0.0000
     35 H          -1.5257   -1.5540    1.9791 H       1  UNL1        0.0000
     36 H          -4.0171   -2.8675    3.2432 H       1  UNL1        0.0000
     37 H          -4.7821   -2.0589    4.5963 H       1  UNL1        0.0000
     38 H          -3.0837   -2.4762    4.6760 H       1  UNL1        0.0000
@<TRIPOS>BOND
     1    25    12    1
     2    24    12    1
     3    12    26    1
     4    12     1    1
     5    27    13    1
     6    21    11    1
     7    17     6    1
     8    28    13    1
     9    13     1    1
    10    13    29    1
    11     1    11    1
    12     1     3    1
    13    18     7    1
    14    11    23    1
    15    11    22    1
    16     6     7   ar
    17     6     5   ar
    18     7     8   ar
    19     3     5    1
    20     5    10   ar
    21     8    19    1
    22     8     9   ar
    23    10     9   ar
    24    10     4    1
    25     9    20    1
    26    34    15    1
    27    35    15    1
    28     4     2    1
    29    15    33    1
    30    15     2    1
    31    36    16    1
    32     2    16    1
    33     2    14    1
    34    16    37    1
    35    16    38    1
    36    32    14    1
    37    14    30    1
    38    14    31    1
