@<TRIPOS>MOLECULE
3,4,23
 56 57 0 0 0
SMALL
GASTEIGER

@<TRIPOS>ATOM
      1 SI          2.6427   14.8010   27.2672 Si      1  UNL1        0.0000
      2 SI         -0.2613   12.5336   26.9125 Si      1  UNL1        0.0000
      3 N           1.6310   14.9619   22.1245 N.2     1  UNL1        0.0000
      4 N           1.2629   14.8272   23.3736 N.pl3   1  UNL1        0.0000
      5 C           2.9298   15.6264   20.2612 C.ar    1  UNL1        0.0000
      6 C           2.1528   14.8819   19.3658 C.ar    1  UNL1        0.0000
      7 C           2.4352   14.8867   18.0166 C.ar    1  UNL1        0.0000
      8 C           3.4988   15.6306   17.5258 C.ar    1  UNL1        0.0000
      9 C           4.2775   16.3705   18.4007 C.ar    1  UNL1        0.0000
     10 C           3.9985   16.3696   19.7532 C.ar    1  UNL1        0.0000
     11 C           1.6394   16.7097   24.8354 C.ar    1  UNL1        0.0000
     12 C           0.3478   16.9714   25.2850 C.ar    1  UNL1        0.0000
     13 C          -0.0622   18.2694   25.5230 C.ar    1  UNL1        0.0000
     14 C           0.8134   19.3248   25.3198 C.ar    1  UNL1        0.0000
     15 C           2.0987   19.0723   24.8744 C.ar    1  UNL1        0.0000
     16 C           2.5083   17.7723   24.6303 C.ar    1  UNL1        0.0000
     17 C           3.0143   13.2859   28.3671 C.3     1  UNL1        0.0000
     18 C           1.8066   16.1729   28.3061 C.3     1  UNL1        0.0000
     19 C           4.3686   15.4534   26.7524 C.3     1  UNL1        0.0000
     20 C           0.6943   10.9404   27.4267 C.3     1  UNL1        0.0000
     21 C          -1.9126   11.8979   26.1450 C.3     1  UNL1        0.0000
     22 C          -0.8237   13.4360   28.5108 C.3     1  UNL1        0.0000
     23 C           0.5363   13.5836   25.5688 C.2     1  UNL1        0.0000
     24 C           1.5986   14.3987   25.7225 C.2     1  UNL1        0.0000
     25 C           2.0193   15.2762   24.5378 C.3     1  UNL1        0.0000
     26 C           2.6484   15.6198   21.6762 C.2     1  UNL1        0.0000
     27 H           1.3298   14.3020   19.7610 H       1  UNL1        0.0000
     28 H           1.8275   14.3068   17.3359 H       1  UNL1        0.0000
     29 H           3.7193   15.6316   16.4685 H       1  UNL1        0.0000
     30 H           5.1077   16.9510   18.0237 H       1  UNL1        0.0000
     31 H           4.6099   16.9495   20.4308 H       1  UNL1        0.0000
     32 H          -0.3213   16.1347   25.4570 H       1  UNL1        0.0000
     33 H          -1.0661   18.4623   25.8726 H       1  UNL1        0.0000
     34 H           0.4949   20.3392   25.5087 H       1  UNL1        0.0000
     35 H           2.7861   19.8902   24.7143 H       1  UNL1        0.0000
     36 H           3.5142   17.5903   24.2781 H       1  UNL1        0.0000
     37 H           3.3830   12.4457   27.7892 H       1  UNL1        0.0000
     38 H           2.1419   12.9523   28.9125 H       1  UNL1        0.0000
     39 H           3.7777   13.5407   29.0958 H       1  UNL1        0.0000
     40 H           1.8598   17.1336   27.8030 H       1  UNL1        0.0000
     41 H           2.2949   16.2779   29.2704 H       1  UNL1        0.0000
     42 H           0.7592   15.9589   28.4873 H       1  UNL1        0.0000
     43 H           4.3042   16.4284   26.2817 H       1  UNL1        0.0000
     44 H           4.8729   14.7807   26.0647 H       1  UNL1        0.0000
     45 H           5.0078   15.5594   27.6241 H       1  UNL1        0.0000
     46 H           1.6210   10.8346   26.8721 H       1  UNL1        0.0000
     47 H           0.1000   10.0487   27.2481 H       1  UNL1        0.0000
     48 H           0.9470   10.9494   28.4812 H       1  UNL1        0.0000
     49 H          -1.7642   11.4910   25.1427 H       1  UNL1        0.0000
     50 H          -2.6577   12.6869   26.0897 H       1  UNL1        0.0000
     51 H          -2.3399   11.1076   26.7564 H       1  UNL1        0.0000
     52 H           0.0141   13.7165   29.1380 H       1  UNL1        0.0000
     53 H          -1.4812   12.8040   29.1004 H       1  UNL1        0.0000
     54 H          -1.3713   14.3428   28.2726 H       1  UNL1        0.0000
     55 H           3.1033   15.1979   24.3576 H       1  UNL1        0.0000
     56 H           3.3280   16.1797   22.3201 H       1  UNL1        0.0000
@<TRIPOS>BOND
     1    29     8    1
     2    28     7    1
     3     8     7   ar
     4     8     9   ar
     5     7     6   ar
     6    30     9    1
     7     9    10   ar
     8     6    27    1
     9     6     5   ar
    10    10     5   ar
    11    10    31    1
    12     5    26    1
    13    26     3    2
    14    26    56    1
    15     3     4    1
    16     4    25    1
    17    36    16    1
    18    55    25    1
    19    25    11    1
    20    25    24    1
    21    16    11   ar
    22    16    15   ar
    23    35    15    1
    24    11    12   ar
    25    15    14   ar
    26    49    21    1
    27    12    32    1
    28    12    13   ar
    29    14    34    1
    30    14    13   ar
    31    13    33    1
    32    23    24    2
    33    23     2    1
    34    24     1    1
    35    44    19    1
    36    50    21    1
    37    21    51    1
    38    21     2    1
    39    43    19    1
    40    19     1    1
    41    19    45    1
    42    46    20    1
    43     2    20    1
    44     2    22    1
    45    47    20    1
    46     1    18    1
    47     1    17    1
    48    20    48    1
    49    37    17    1
    50    40    18    1
    51    54    22    1
    52    18    42    1
    53    18    41    1
    54    17    38    1
    55    17    39    1
    56    22    53    1
    57    22    52    1
