@<TRIPOS>MOLECULE
5,80,81
 91 91 0 0 0
SMALL
GASTEIGER

@<TRIPOS>ATOM
      1 P           1.0467    5.5879   13.7192 P.3     1  UNL1        0.0000
      2 P           5.8808    3.3277   14.0485 P.3     1  UNL1        0.0000
      3 SI          1.3630    2.6279   14.6562 Si      1  UNL1        0.0000
      4 SI          3.7355    1.2561   13.3740 Si      1  UNL1        0.0000
      5 N           2.9268    2.6469   13.9711 N.3     1  UNL1        0.0000
      6 C           0.3067    1.1150   14.1702 C.3     1  UNL1        0.0000
      7 H           0.6212    0.2508   14.7386 H       1  UNL1        0.0000
      8 H           0.4160    0.8727   13.1198 H       1  UNL1        0.0000
      9 H          -0.7481    1.2731   14.3704 H       1  UNL1        0.0000
     10 C           1.3459    2.7342   16.5739 C.3     1  UNL1        0.0000
     11 H           2.0549    2.0316   16.9987 H       1  UNL1        0.0000
     12 H           0.3667    2.5019   16.9840 H       1  UNL1        0.0000
     13 H           1.6217    3.7267   16.9162 H       1  UNL1        0.0000
     14 C           0.1707    4.0781   14.1286 C.3     1  UNL1        0.0000
     15 H          -0.4940    3.8019   13.3140 H       1  UNL1        0.0000
     16 H          -0.4489    4.2897   14.9987 H       1  UNL1        0.0000
     17 C           1.1650    5.6084   11.8130 C.3     1  UNL1        0.0000
     18 C           2.2905    6.5370   11.3690 C.3     1  UNL1        0.0000
     19 H           2.4119    6.4792   10.2873 H       1  UNL1        0.0000
     20 H           3.2271    6.2270   11.8295 H       1  UNL1        0.0000
     21 H           2.0866    7.5750   11.6245 H       1  UNL1        0.0000
     22 C           1.5502    4.1785   11.4341 C.3     1  UNL1        0.0000
     23 H           1.9651    4.1593   10.4274 H       1  UNL1        0.0000
     24 H           0.6924    3.5122   11.4545 H       1  UNL1        0.0000
     25 H           2.2938    3.7876   12.1295 H       1  UNL1        0.0000
     26 C          -0.1404    5.9864   11.1208 C.3     1  UNL1        0.0000
     27 H          -0.0466    5.7891   10.0528 H       1  UNL1        0.0000
     28 H          -0.3750    7.0417   11.2422 H       1  UNL1        0.0000
     29 H          -0.9707    5.3933   11.4983 H       1  UNL1        0.0000
     30 C           0.0205    7.0317   14.4164 C.3     1  UNL1        0.0000
     31 C          -1.4712    6.8565   14.1366 C.3     1  UNL1        0.0000
     32 H          -2.0311    7.6056   14.6969 H       1  UNL1        0.0000
     33 H          -1.8250    5.8766   14.4467 H       1  UNL1        0.0000
     34 H          -1.7013    6.9901   13.0842 H       1  UNL1        0.0000
     35 C           0.4770    8.3886   13.8869 C.3     1  UNL1        0.0000
     36 H          -0.1101    9.1776   14.3581 H       1  UNL1        0.0000
     37 H           0.3371    8.4686   12.8114 H       1  UNL1        0.0000
     38 H           1.5225    8.5662   14.1248 H       1  UNL1        0.0000
     39 C           0.2616    6.9826   15.9262 C.3     1  UNL1        0.0000
     40 H          -0.3569    7.7254   16.4290 H       1  UNL1        0.0000
     41 H           1.3036    7.1939   16.1584 H       1  UNL1        0.0000
     42 H           0.0162    6.0022   16.3307 H       1  UNL1        0.0000
     43 C           3.3161    0.8424   11.5485 C.3     1  UNL1        0.0000
     44 H           2.2899    0.4987   11.4838 H       1  UNL1        0.0000
     45 H           3.9488    0.0459   11.1687 H       1  UNL1        0.0000
     46 H           3.4151    1.6939   10.8857 H       1  UNL1        0.0000
     47 C           3.4446   -0.3643   14.3507 C.3     1  UNL1        0.0000
     48 H           2.5179   -0.8321   14.0437 H       1  UNL1        0.0000
     49 H           3.3786   -0.1746   15.4164 H       1  UNL1        0.0000
     50 H           4.2404   -1.0847   14.1882 H       1  UNL1        0.0000
     51 C           5.6172    1.5863   13.5600 C.3     1  UNL1        0.0000
     52 H           5.9702    0.9549   14.3700 H       1  UNL1        0.0000
     53 H           6.1921    1.3345   12.6729 H       1  UNL1        0.0000
     54 C           6.6040    4.0976   12.4730 C.3     1  UNL1        0.0000
     55 C           6.6902    5.6114   12.6681 C.3     1  UNL1        0.0000
     56 H           6.8749    6.1054   11.7139 H       1  UNL1        0.0000
     57 H           7.4875    5.8909   13.3494 H       1  UNL1        0.0000
     58 H           5.7497    5.9837   13.0739 H       1  UNL1        0.0000
     59 C           5.5342    3.8279   11.4124 C.3     1  UNL1        0.0000
     60 H           5.6982    4.4524   10.5344 H       1  UNL1        0.0000
     61 H           4.5521    4.0536   11.8311 H       1  UNL1        0.0000
     62 H           5.5401    2.7886   11.0992 H       1  UNL1        0.0000
     63 C           7.9484    3.5545   12.0009 C.3     1  UNL1        0.0000
     64 H           8.1539    3.9205   10.9945 H       1  UNL1        0.0000
     65 H           7.9493    2.4673   11.9673 H       1  UNL1        0.0000
     66 H           8.7583    3.8878   12.6450 H       1  UNL1        0.0000
     67 C           7.2369    3.1530   15.3707 C.3     1  UNL1        0.0000
     68 C           8.3176    2.1064   15.0997 C.3     1  UNL1        0.0000
     69 H           9.0142    2.0938   15.9387 H       1  UNL1        0.0000
     70 H           8.8823    2.3316   14.2011 H       1  UNL1        0.0000
     71 H           7.9027    1.1074   15.0029 H       1  UNL1        0.0000
     72 C           6.4455    2.7456   16.6175 C.3     1  UNL1        0.0000
     73 H           7.1111    2.6040   17.4689 H       1  UNL1        0.0000
     74 H           5.9021    1.8180   16.4456 H       1  UNL1        0.0000
     75 H           5.7192    3.5168   16.8641 H       1  UNL1        0.0000
     76 C           7.9075    4.5008   15.6288 C.3     1  UNL1        0.0000
     77 H           8.4296    4.4822   16.5859 H       1  UNL1        0.0000
     78 H           7.1661    5.2954   15.6574 H       1  UNL1        0.0000
     79 H           8.6398    4.7279   14.8575 H       1  UNL1        0.0000
     80 N           2.4060    5.4774   14.5392 N.pl3   1  UNL1        0.0000
     81 C           3.4746    6.2671   14.8863 C.ar    1  UNL1        0.0000
     82 C           3.9278    7.4513   14.2741 C.ar    1  UNL1        0.0000
     83 H           3.4131    7.8350   13.4071 H       1  UNL1        0.0000
     84 C           5.0071    8.1404   14.7812 C.ar    1  UNL1        0.0000
     85 H           5.3287    9.0501   14.2938 H       1  UNL1        0.0000
     86 C           5.6775    7.6922   15.9147 C.ar    1  UNL1        0.0000
     87 H           6.5118    8.2539   16.3070 H       1  UNL1        0.0000
     88 C           5.2485    6.5408   16.5452 C.ar    1  UNL1        0.0000
     89 H           5.7290    6.2160   17.4584 H       1  UNL1        0.0000
     90 C           4.1758    5.8116   16.0431 C.ar    1  UNL1        0.0000
     91 H           3.7137    5.0396   16.6569 H       1  UNL1        0.0000
@<TRIPOS>BOND
     1    27    26    1
     2    19    18    1
     3    23    22    1
     4    60    59    1
     5    46    43    1
     6    64    63    1
     7    62    59    1
     8    26    28    1
     9    26    29    1
    10    26    17    1
    11    45    43    1
    12    18    21    1
    13    18    17    1
    14    18    20    1
    15    59    61    1
    16    59    54    1
    17    22    24    1
    18    22    17    1
    19    22    25    1
    20    44    43    1
    21    43     4    1
    22    56    55    1
    23    17     1    1
    24    65    63    1
    25    63    54    1
    26    63    66    1
    27    54    55    1
    28    54     2    1
    29    55    58    1
    30    55    57    1
    31    53    51    1
    32    37    35    1
    33    34    31    1
    34     8     6    1
    35    15    14    1
    36     4    51    1
    37     4     5    1
    38     4    47    1
    39    83    82    1
    40    51     2    1
    41    51    52    1
    42     1    14    1
    43     1    30    1
    44     1    80    1
    45    35    38    1
    46    35    36    1
    47    35    30    1
    48     5     3    1
    49    48    47    1
    50     2    67    1
    51    14     3    1
    52    14    16    1
    53    31    30    1
    54    31    33    1
    55    31    32    1
    56     6     9    1
    57     6     3    1
    58     6     7    1
    59    50    47    1
    60    70    68    1
    61    82    84   ar
    62    82    81   ar
    63    85    84    1
    64    47    49    1
    65    30    39    1
    66    80    81    1
    67     3    10    1
    68    84    86   ar
    69    79    76    1
    70    81    90   ar
    71    71    68    1
    72    68    67    1
    73    68    69    1
    74    67    76    1
    75    67    72    1
    76    76    78    1
    77    76    77    1
    78    86    87    1
    79    86    88   ar
    80    39    41    1
    81    39    42    1
    82    39    40    1
    83    90    88   ar
    84    90    91    1
    85    74    72    1
    86    88    89    1
    87    10    13    1
    88    10    12    1
    89    10    11    1
    90    72    75    1
    91    72    73    1
