@<TRIPOS>MOLECULE
1,2,9
 20 20 0 0 0
SMALL
GASTEIGER

@<TRIPOS>ATOM
      1 N           4.8635   15.7072    2.1465 N.3     1  UNL1       -0.3027
      2 N           7.7285   15.5250    2.4577 N.ar    1  UNL1       -0.2586
      3 C           8.9865   15.9779    2.7380 C.ar    1  UNL1        0.0280
      4 H           9.6725   15.3754    3.3124 H       1  UNL1        0.0829
      5 C           9.2050   17.2061    2.1644 C.ar    1  UNL1       -0.0419
      6 H          10.1028   17.7932    2.2157 H       1  UNL1        0.0633
      7 C           8.0180   17.5448    1.4890 C.ar    1  UNL1       -0.0377
      8 H           7.8314   18.4384    0.9225 H       1  UNL1        0.0636
      9 C           7.1453   16.4987    1.6850 C.ar    1  UNL1        0.0552
     10 C           5.7678   16.2930    1.1326 C.3     1  UNL1        0.0406
     11 H           5.3683   17.2519    0.7644 H       1  UNL1        0.0491
     12 H           5.8112   15.5955    0.2852 H       1  UNL1        0.0491
     13 C           3.5909   15.3569    1.5170 C.3     1  UNL1       -0.0127
     14 H           3.1275   16.2332    1.0406 H       1  UNL1        0.0391
     15 H           2.9034   14.9749    2.2712 H       1  UNL1        0.0391
     16 H           3.7460   14.5920    0.7568 H       1  UNL1        0.0391
     17 C           4.6007   16.7131    3.1815 C.3     1  UNL1       -0.0127
     18 H           5.5464   17.0896    3.5724 H       1  UNL1        0.0391
     19 H           4.0202   16.2673    3.9910 H       1  UNL1        0.0391
     20 H           4.0358   17.5622    2.7702 H       1  UNL1        0.0391
@<TRIPOS>BOND
     1    12    10    1
     2    16    13    1
     3    11    10    1
     4     8     7    1
     5    14    13    1
     6    10     9    1
     7    10     1    1
     8     7     9   ar
     9     7     5   ar
    10    13     1    1
    11    13    15    1
    12     9     2   ar
    13     1    17    1
    14     5     6    1
    15     5     3   ar
    16     2     3   ar
    17     3     4    1
    18    20    17    1
    19    17    18    1
    20    17    19    1
