@<TRIPOS>MOLECULE
1,2,9
 20 20 0 0 0
SMALL
GASTEIGER

@<TRIPOS>ATOM
      1 N           5.0107   13.2709    4.5803 N.ar    1  UNL1       -0.2586
      2 N           7.4556   14.4223    5.6645 N.3     1  UNL1       -0.3027
      3 C           3.6529   13.1547    4.4630 C.ar    1  UNL1        0.0280
      4 H           3.1896   13.0494    3.4939 H       1  UNL1        0.0829
      5 C           3.0500   13.1574    5.6959 C.ar    1  UNL1       -0.0419
      6 H           1.9997   13.0730    5.9010 H       1  UNL1        0.0633
      7 C           4.0834   13.2872    6.6414 C.ar    1  UNL1       -0.0377
      8 H           3.9785   13.3210    7.7098 H       1  UNL1        0.0636
      9 C           5.2597   13.3507    5.9303 C.ar    1  UNL1        0.0552
     10 C           6.6678   13.4356    6.4343 C.3     1  UNL1        0.0406
     11 H           7.1651   12.4606    6.3296 H       1  UNL1        0.0491
     12 H           6.6604   13.6940    7.5054 H       1  UNL1        0.0491
     13 C           6.9844   15.7697    6.0029 C.3     1  UNL1       -0.0127
     14 H           7.2003   16.0092    7.0543 H       1  UNL1        0.0391
     15 H           5.9057   15.8275    5.8543 H       1  UNL1        0.0391
     16 H           7.4818   16.5040    5.3675 H       1  UNL1        0.0391
     17 C           8.8642   14.3217    6.0440 C.3     1  UNL1       -0.0127
     18 H           8.9970   14.4687    7.1258 H       1  UNL1        0.0391
     19 H           9.4371   15.0864    5.5214 H       1  UNL1        0.0391
     20 H           9.2567   13.3416    5.7757 H       1  UNL1        0.0391
@<TRIPOS>BOND
     1     4     3    1
     2     3     1   ar
     3     3     5   ar
     4     1     9   ar
     5    16    13    1
     6    19    17    1
     7     2    13    1
     8     2    17    1
     9     2    10    1
    10     5     6    1
    11     5     7   ar
    12    20    17    1
    13    15    13    1
    14     9    10    1
    15     9     7   ar
    16    13    14    1
    17    17    18    1
    18    11    10    1
    19    10    12    1
    20     7     8    1
