@<TRIPOS>MOLECULE
3,4,5
 54 55 0 0 0
SMALL
GASTEIGER

@<TRIPOS>ATOM
      1 SI         12.8256   -2.8481    2.3104 Si      1  UNL1        0.0000
      2 SI         14.2075    0.3322   -4.1960 Si      1  UNL1        0.0000
      3 N          14.0029   -2.0415    1.3099 N.3     1  UNL1        0.0000
      4 N          14.8056   -0.5304   -0.1291 N.3     1  UNL1        0.0000
      5 C          13.8409   -1.3949    0.1733 C.3     1  UNL1        0.0000
      6 C          12.6552   -1.5919   -0.6966 C.ar    1  UNL1        0.0000
      7 C          12.4020   -2.8411   -1.2516 C.ar    1  UNL1        0.0000
      8 H          13.0690   -3.6630   -1.0322 H       1  UNL1        0.0000
      9 C          11.3125   -3.0219   -2.0841 C.ar    1  UNL1        0.0000
     10 H          11.1249   -3.9916   -2.5214 H       1  UNL1        0.0000
     11 C          10.4624   -1.9627   -2.3548 C.ar    1  UNL1        0.0000
     12 H           9.6104   -2.1058   -3.0029 H       1  UNL1        0.0000
     13 C          10.7049   -0.7203   -1.7923 C.ar    1  UNL1        0.0000
     14 H          10.0385    0.1045   -1.9971 H       1  UNL1        0.0000
     15 C          11.8014   -0.5300   -0.9717 C.ar    1  UNL1        0.0000
     16 H          11.9972    0.4375   -0.5328 H       1  UNL1        0.0000
     17 C          14.8276    0.1464   -1.3564 C.3     1  UNL1        0.0000
     18 C          14.5925   -0.4576   -2.5342 C.3     1  UNL1        0.0000
     19 H          14.4137   -1.5258   -2.4956 H       1  UNL1        0.0000
     20 C          15.1594    1.5786   -1.2446 C.ar    1  UNL1        0.0000
     21 C          16.0711    2.1687   -2.1169 C.ar    1  UNL1        0.0000
     22 H          16.5650    1.5547   -2.8529 H       1  UNL1        0.0000
     23 C          16.3662    3.5154   -2.0146 C.ar    1  UNL1        0.0000
     24 H          17.0812    3.9612   -2.6915 H       1  UNL1        0.0000
     25 C          15.7500    4.2931   -1.0474 C.ar    1  UNL1        0.0000
     26 H          15.9769    5.3462   -0.9716 H       1  UNL1        0.0000
     27 C          14.8490    3.7118   -0.1718 C.ar    1  UNL1        0.0000
     28 H          14.3631    4.3127    0.5815 H       1  UNL1        0.0000
     29 C          14.5645    2.3606   -0.2575 C.ar    1  UNL1        0.0000
     30 H          13.8653    1.9141    0.4365 H       1  UNL1        0.0000
     31 C          12.7007   -1.9754    4.0075 C.3     1  UNL1        0.0000
     32 H          12.3473   -0.9518    3.9144 H       1  UNL1        0.0000
     33 H          13.6600   -1.9538    4.5179 H       1  UNL1        0.0000
     34 H          12.0031   -2.5092    4.6458 H       1  UNL1        0.0000
     35 C          13.4371   -4.6477    2.5415 C.3     1  UNL1        0.0000
     36 H          13.5204   -5.1862    1.6020 H       1  UNL1        0.0000
     37 H          12.7374   -5.1908    3.1670 H       1  UNL1        0.0000
     38 H          14.4050   -4.6691    3.0329 H       1  UNL1        0.0000
     39 C          11.0325   -2.9034    1.6409 C.3     1  UNL1        0.0000
     40 H          10.6844   -1.9266    1.3217 H       1  UNL1        0.0000
     41 H          10.3707   -3.2461    2.4289 H       1  UNL1        0.0000
     42 H          10.9212   -3.5821    0.8032 H       1  UNL1        0.0000
     43 C          13.1625   -0.9869   -5.1038 C.3     1  UNL1        0.0000
     44 H          13.7420   -1.8841   -5.2999 H       1  UNL1        0.0000
     45 H          12.7980   -0.6203   -6.0582 H       1  UNL1        0.0000
     46 H          12.3003   -1.2778   -4.5110 H       1  UNL1        0.0000
     47 C          15.7266    0.7286   -5.2938 C.3     1  UNL1        0.0000
     48 H          16.5803    0.1054   -5.0446 H       1  UNL1        0.0000
     49 H          16.0329    1.7650   -5.1913 H       1  UNL1        0.0000
     50 H          15.4953    0.5616   -6.3416 H       1  UNL1        0.0000
     51 C          13.1449    1.9035   -3.9846 C.3     1  UNL1        0.0000
     52 H          12.7974    2.2778   -4.9429 H       1  UNL1        0.0000
     53 H          13.7007    2.6997   -3.5003 H       1  UNL1        0.0000
     54 H          12.2711    1.6965   -3.3745 H       1  UNL1        0.0000
@<TRIPOS>BOND
     1    50    47    1
     2    45    43    1
     3    44    43    1
     4    47    49    1
     5    47    48    1
     6    47     2    1
     7    43    46    1
     8    43     2    1
     9    52    51    1
    10     2    51    1
    11     2    18    1
    12    51    53    1
    13    51    54    1
    14    12    11    1
    15    22    21    1
    16    24    23    1
    17    18    19    1
    18    18    17    1
    19    10     9    1
    20    11     9   ar
    21    11    13   ar
    22    21    23   ar
    23    21    20   ar
    24     9     7   ar
    25    23    25   ar
    26    14    13    1
    27    13    15   ar
    28    17    20    1
    29    17     4    1
    30     7     8    1
    31     7     6   ar
    32    20    29   ar
    33    25    26    1
    34    25    27   ar
    35    15     6   ar
    36    15    16    1
    37     6     5    1
    38    29    27   ar
    39    29    30    1
    40    27    28    1
    41     4     5    1
    42     5     3    1
    43    42    39    1
    44     3     1    1
    45    40    39    1
    46    36    35    1
    47    39     1    1
    48    39    41    1
    49     1    35    1
    50     1    31    1
    51    35    38    1
    52    35    37    1
    53    32    31    1
    54    31    33    1
    55    31    34    1
