@<TRIPOS>MOLECULE
3,4,8
 54 55 0 0 0
SMALL
GASTEIGER

@<TRIPOS>ATOM
      1 SI         17.4340    0.7225    4.3632 Si      1  UNL1        0.0000
      2 SI         18.0487   -3.0959    0.7191 Si      1  UNL1        0.0000
      3 N          17.4784   -1.4528    0.7517 N.3     1  UNL1        0.0000
      4 N          17.1400    0.5011    2.6535 N.pl3   1  UNL1        0.0000
      5 C          17.7985   -0.4406   -0.0393 C.3     1  UNL1        0.0000
      6 C          17.6728    0.8965    0.3589 C.2     1  UNL1        0.0000
      7 H          17.8796    1.6578   -0.3797 H       1  UNL1        0.0000
      8 C          17.4049    1.3378    1.6691 C.2     1  UNL1        0.0000
      9 C          18.2601   -0.6665   -1.4289 C.ar    1  UNL1        0.0000
     10 C          17.5572   -1.5570   -2.2344 C.ar    1  UNL1        0.0000
     11 H          16.7183   -2.0913   -1.8131 H       1  UNL1        0.0000
     12 C          17.9151   -1.7392   -3.5568 C.ar    1  UNL1        0.0000
     13 H          17.3544   -2.4231   -4.1768 H       1  UNL1        0.0000
     14 C          18.9907   -1.0450   -4.0861 C.ar    1  UNL1        0.0000
     15 H          19.2745   -1.1899   -5.1180 H       1  UNL1        0.0000
     16 C          19.7012   -0.1631   -3.2885 C.ar    1  UNL1        0.0000
     17 H          20.5434    0.3747   -3.6977 H       1  UNL1        0.0000
     18 C          19.3336    0.0338   -1.9697 C.ar    1  UNL1        0.0000
     19 H          19.8932    0.7170   -1.3481 H       1  UNL1        0.0000
     20 C          17.4481    2.8041    1.8802 C.ar    1  UNL1        0.0000
     21 C          16.3875    3.4177    2.5410 C.ar    1  UNL1        0.0000
     22 H          15.5659    2.8118    2.8968 H       1  UNL1        0.0000
     23 C          16.3745    4.7908    2.7065 C.ar    1  UNL1        0.0000
     24 H          15.5457    5.2613    3.2147 H       1  UNL1        0.0000
     25 C          17.4189    5.5618    2.2248 C.ar    1  UNL1        0.0000
     26 H          17.4101    6.6334    2.3599 H       1  UNL1        0.0000
     27 C          18.4772    4.9554    1.5685 C.ar    1  UNL1        0.0000
     28 H          19.2958    5.5536    1.1957 H       1  UNL1        0.0000
     29 C          18.4894    3.5846    1.3887 C.ar    1  UNL1        0.0000
     30 H          19.3220    3.1132    0.8868 H       1  UNL1        0.0000
     31 C          19.0260   -3.4050    2.3335 C.3     1  UNL1        0.0000
     32 H          19.8182   -2.6736    2.4650 H       1  UNL1        0.0000
     33 H          19.4881   -4.3869    2.3101 H       1  UNL1        0.0000
     34 H          18.3829   -3.3624    3.2053 H       1  UNL1        0.0000
     35 C          16.4670   -4.1676    0.5876 C.3     1  UNL1        0.0000
     36 H          16.3087   -4.5508   -0.4173 H       1  UNL1        0.0000
     37 H          15.5901   -3.5823    0.8768 H       1  UNL1        0.0000
     38 H          16.5254   -5.0221    1.2538 H       1  UNL1        0.0000
     39 C          19.2702   -3.5925   -0.6725 C.3     1  UNL1        0.0000
     40 H          20.0291   -2.8318   -0.8230 H       1  UNL1        0.0000
     41 H          18.7876   -3.7628   -1.6279 H       1  UNL1        0.0000
     42 H          19.7793   -4.5095   -0.3954 H       1  UNL1        0.0000
     43 C          15.8408    0.5399    5.4001 C.3     1  UNL1        0.0000
     44 H          15.1249    1.3338    5.2059 H       1  UNL1        0.0000
     45 H          16.0848    0.5629    6.4575 H       1  UNL1        0.0000
     46 H          15.3466   -0.4073    5.1967 H       1  UNL1        0.0000
     47 C          18.2753    2.3736    4.8546 C.3     1  UNL1        0.0000
     48 H          19.0766    2.6366    4.1722 H       1  UNL1        0.0000
     49 H          18.7089    2.2722    5.8436 H       1  UNL1        0.0000
     50 H          17.5839    3.2077    4.8840 H       1  UNL1        0.0000
     51 C          18.7143   -0.6351    4.8025 C.3     1  UNL1        0.0000
     52 H          19.5361   -0.6534    4.0926 H       1  UNL1        0.0000
     53 H          18.2581   -1.6182    4.8145 H       1  UNL1        0.0000
     54 H          19.1325   -0.4525    5.7864 H       1  UNL1        0.0000
@<TRIPOS>BOND
     1    15    14    1
     2    13    12    1
     3    14    12   ar
     4    14    16   ar
     5    17    16    1
     6    12    10   ar
     7    16    18   ar
     8    10    11    1
     9    10     9   ar
    10    18     9   ar
    11    18    19    1
    12    41    39    1
    13     9     5    1
    14    40    39    1
    15    39    42    1
    16    39     2    1
    17    36    35    1
    18     7     6    1
    19     5     6    1
    20     5     3    1
    21     6     8    2
    22    35     2    1
    23    35    37    1
    24    35    38    1
    25     2     3    1
    26     2    31    1
    27    30    29    1
    28    28    27    1
    29    29    27   ar
    30    29    20   ar
    31    27    25   ar
    32     8    20    1
    33     8     4    1
    34    20    21   ar
    35    25    26    1
    36    25    23   ar
    37    33    31    1
    38    31    32    1
    39    31    34    1
    40    21    23   ar
    41    21    22    1
    42     4     1    1
    43    23    24    1
    44    52    51    1
    45    48    47    1
    46     1    51    1
    47     1    47    1
    48     1    43    1
    49    51    53    1
    50    51    54    1
    51    47    50    1
    52    47    49    1
    53    46    43    1
    54    44    43    1
    55    43    45    1
