@<TRIPOS>MOLECULE
5,6,7
 75 78 0 0 0
SMALL
GASTEIGER

@<TRIPOS>ATOM
      1 P           5.8616    3.1456   -1.1303 P.3     1  UNL1        0.0000
      2 P           3.5659    1.2614   -0.7469 P.3     1  UNL1        0.0000
      3 SI          7.3289    3.5524   -3.8340 Si      1  UNL1        0.0000
      4 SI          2.3865   -0.5157   -3.0007 Si      1  UNL1        0.0000
      5 N           6.0400    3.1344   -2.7498 N.3     1  UNL1        0.0000
      6 N           3.2315    0.8168   -2.2783 N.3     1  UNL1        0.0000
      7 C           5.2792    1.5353   -0.8374 C.3     1  UNL1        0.0000
      8 C           6.6589    3.1861   -5.5861 C.3     1  UNL1        0.0000
      9 C           7.7808    5.4009   -3.6458 C.3     1  UNL1        0.0000
     10 C           8.8665    2.4618   -3.4886 C.3     1  UNL1        0.0000
     11 C           2.5101   -0.2328   -4.8869 C.3     1  UNL1        0.0000
     12 C           0.5629   -0.5319   -2.4259 C.3     1  UNL1        0.0000
     13 C           3.2365   -2.1698   -2.5379 C.3     1  UNL1        0.0000
     14 C           7.4712    3.3615   -0.3236 C.ar    1  UNL1        0.0000
     15 C           8.1928    2.2060   -0.0519 C.ar    1  UNL1        0.0000
     16 C           9.4685    2.2952    0.4741 C.ar    1  UNL1        0.0000
     17 C          10.0252    3.5403    0.7234 C.ar    1  UNL1        0.0000
     18 C           9.3077    4.6938    0.4482 C.ar    1  UNL1        0.0000
     19 C           8.0306    4.6085   -0.0780 C.ar    1  UNL1        0.0000
     20 C           4.8920    4.6144   -0.6815 C.ar    1  UNL1        0.0000
     21 C           4.1706    5.2812   -1.6641 C.ar    1  UNL1        0.0000
     22 C           3.3983    6.3753   -1.3185 C.ar    1  UNL1        0.0000
     23 C           3.3385    6.7942    0.0013 C.ar    1  UNL1        0.0000
     24 C           4.0449    6.1167    0.9831 C.ar    1  UNL1        0.0000
     25 C           4.8186    5.0223    0.6458 C.ar    1  UNL1        0.0000
     26 C           2.4038    2.5762   -0.2769 C.ar    1  UNL1        0.0000
     27 C           1.6822    3.2355   -1.2644 C.ar    1  UNL1        0.0000
     28 C           0.8258    4.2627   -0.9114 C.ar    1  UNL1        0.0000
     29 C           0.6993    4.6362    0.4172 C.ar    1  UNL1        0.0000
     30 C           1.4338    3.9890    1.3989 C.ar    1  UNL1        0.0000
     31 C           2.2913    2.9615    1.0544 C.ar    1  UNL1        0.0000
     32 C           3.2328   -0.1093    0.3926 C.ar    1  UNL1        0.0000
     33 C           4.2725   -1.0051    0.6081 C.ar    1  UNL1        0.0000
     34 C           4.0678   -2.1267    1.3905 C.ar    1  UNL1        0.0000
     35 C           2.8215   -2.3558    1.9532 C.ar    1  UNL1        0.0000
     36 C           1.7822   -1.4652    1.7346 C.ar    1  UNL1        0.0000
     37 C           1.9833   -0.3414    0.9523 C.ar    1  UNL1        0.0000
     38 H           6.3265    2.1488   -5.6686 H       1  UNL1        0.0000
     39 H           7.4275    3.3489   -6.3348 H       1  UNL1        0.0000
     40 H           5.8139    3.8246   -5.8336 H       1  UNL1        0.0000
     41 H           8.3200    5.5766   -2.7204 H       1  UNL1        0.0000
     42 H           6.8989    6.0344   -3.6438 H       1  UNL1        0.0000
     43 H           8.4178    5.7179   -4.4638 H       1  UNL1        0.0000
     44 H           9.3731    2.7640   -2.5762 H       1  UNL1        0.0000
     45 H           9.5817    2.5310   -4.3017 H       1  UNL1        0.0000
     46 H           8.5829    1.4163   -3.3817 H       1  UNL1        0.0000
     47 H           3.5525   -0.1425   -5.2007 H       1  UNL1        0.0000
     48 H           1.9937    0.6748   -5.1909 H       1  UNL1        0.0000
     49 H           2.0703   -1.0624   -5.4312 H       1  UNL1        0.0000
     50 H           0.1020    0.4471   -2.5169 H       1  UNL1        0.0000
     51 H           0.4856   -0.8417   -1.3886 H       1  UNL1        0.0000
     52 H          -0.0141   -1.2293   -3.0225 H       1  UNL1        0.0000
     53 H           4.3151   -2.0997   -2.6666 H       1  UNL1        0.0000
     54 H           2.8782   -2.9787   -3.1662 H       1  UNL1        0.0000
     55 H           3.0417   -2.4430   -1.5045 H       1  UNL1        0.0000
     56 H           7.7285    1.2492   -0.2604 H       1  UNL1        0.0000
     57 H          10.0324    1.3989    0.6872 H       1  UNL1        0.0000
     58 H          11.0223    3.6127    1.1324 H       1  UNL1        0.0000
     59 H           9.7467    5.6615    0.6438 H       1  UNL1        0.0000
     60 H           7.4611    5.5026   -0.2937 H       1  UNL1        0.0000
     61 H           4.2300    4.9327   -2.6903 H       1  UNL1        0.0000
     62 H           2.8412    6.9019   -2.0791 H       1  UNL1        0.0000
     63 H           2.7368    7.6505    0.2680 H       1  UNL1        0.0000
     64 H           3.9905    6.4433    2.0114 H       1  UNL1        0.0000
     65 H           5.3758    4.4790    1.3985 H       1  UNL1        0.0000
     66 H           1.8007    2.9286   -2.2986 H       1  UNL1        0.0000
     67 H           0.2567    4.7739   -1.6737 H       1  UNL1        0.0000
     68 H           0.0279    5.4368    0.6902 H       1  UNL1        0.0000
     69 H           1.3363    4.2875    2.4326 H       1  UNL1        0.0000
     70 H           2.8746    2.4448    1.8061 H       1  UNL1        0.0000
     71 H           5.2332   -0.7965    0.1520 H       1  UNL1        0.0000
     72 H           4.8742   -2.8249    1.5607 H       1  UNL1        0.0000
     73 H           2.6585   -3.2318    2.5637 H       1  UNL1        0.0000
     74 H           0.8127   -1.6489    2.1747 H       1  UNL1        0.0000
     75 H           1.1795    0.3613    0.7783 H       1  UNL1        0.0000
@<TRIPOS>BOND
     1    39     8    1
     2    40     8    1
     3    38     8    1
     4     8     3    1
     5    49    11    1
     6    47    11    1
     7    48    11    1
     8    11     4    1
     9    43     9    1
    10    45    10    1
    11     3     9    1
    12     3    10    1
    13     3     5    1
    14     9    42    1
    15     9    41    1
    16    10    46    1
    17    10    44    1
    18    54    13    1
    19    52    12    1
    20     4    13    1
    21     4    12    1
    22     4     6    1
    23     5     1    1
    24    61    21    1
    25    53    13    1
    26    13    55    1
    27    50    12    1
    28    12    51    1
    29    66    27    1
    30     6     2    1
    31    62    22    1
    32    67    28    1
    33    21    22   ar
    34    21    20   ar
    35    22    23   ar
    36    27    28   ar
    37    27    26   ar
    38     1     7    1
    39     1    20    1
    40     1    14    1
    41    28    29   ar
    42     7     2    1
    43     2    26    1
    44     2    32    1
    45    20    25   ar
    46    14    19   ar
    47    14    15   ar
    48    60    19    1
    49    26    31   ar
    50    56    15    1
    51    19    18   ar
    52    15    16   ar
    53    23    63    1
    54    23    24   ar
    55    71    33    1
    56    32    33   ar
    57    32    37   ar
    58    29    68    1
    59    29    30   ar
    60    18    59    1
    61    18    17   ar
    62    16    57    1
    63    16    17   ar
    64    33    34   ar
    65    25    24   ar
    66    25    65    1
    67    17    58    1
    68    75    37    1
    69    37    36   ar
    70    24    64    1
    71    31    30   ar
    72    31    70    1
    73    34    72    1
    74    34    35   ar
    75    30    69    1
    76    36    35   ar
    77    36    74    1
    78    35    73    1
