@<TRIPOS>MOLECULE
5,6,7
 75 78 0 0 0
SMALL
GASTEIGER

@<TRIPOS>ATOM
      1 P           3.2041    4.4412    1.4031 P.3     1  UNL1        0.0000
      2 P           5.7492    3.2468    2.2912 P.3     1  UNL1        0.0000
      3 SI          1.7198    6.6051    3.0417 Si      1  UNL1        0.0000
      4 SI          7.1432    4.0920    4.9147 Si      1  UNL1        0.0000
      5 N           3.0572    5.8419    2.2629 N.3     1  UNL1        0.0000
      6 N           6.3590    4.3139    3.3931 N.3     1  UNL1        0.0000
      7 C           4.0171    3.2952    2.4269 C.3     1  UNL1        0.0000
      8 C           0.7122    7.6717    1.8129 C.3     1  UNL1        0.0000
      9 C           2.5555    7.7558    4.3363 C.3     1  UNL1        0.0000
     10 C           0.5382    5.3679    3.9117 C.3     1  UNL1        0.0000
     11 C           9.0251    3.8185    4.6991 C.3     1  UNL1        0.0000
     12 C           6.8530    5.7641    5.8201 C.3     1  UNL1        0.0000
     13 C           6.4115    2.6459    5.9436 C.3     1  UNL1        0.0000
     14 C           3.8875    4.9899   -0.1916 C.ar    1  UNL1        0.0000
     15 C           4.5034    6.2331   -0.2689 C.ar    1  UNL1        0.0000
     16 C           5.0356    6.6577   -1.4727 C.ar    1  UNL1        0.0000
     17 C           4.9665    5.8393   -2.5892 C.ar    1  UNL1        0.0000
     18 C           4.3696    4.5911   -2.5053 C.ar    1  UNL1        0.0000
     19 C           3.8319    4.1622   -1.3061 C.ar    1  UNL1        0.0000
     20 C           1.5519    3.8104    0.9988 C.ar    1  UNL1        0.0000
     21 C           0.7519    4.4488    0.0600 C.ar    1  UNL1        0.0000
     22 C          -0.5340    3.9931   -0.1680 C.ar    1  UNL1        0.0000
     23 C          -1.0208    2.9060    0.5420 C.ar    1  UNL1        0.0000
     24 C          -0.2226    2.2699    1.4798 C.ar    1  UNL1        0.0000
     25 C           1.0644    2.7226    1.7087 C.ar    1  UNL1        0.0000
     26 C           6.3273    1.5746    2.6916 C.ar    1  UNL1        0.0000
     27 C           7.6572    1.2174    2.5105 C.ar    1  UNL1        0.0000
     28 C           8.0889   -0.0378    2.8993 C.ar    1  UNL1        0.0000
     29 C           7.1963   -0.9322    3.4703 C.ar    1  UNL1        0.0000
     30 C           5.8692   -0.5753    3.6511 C.ar    1  UNL1        0.0000
     31 C           5.4344    0.6790    3.2619 C.ar    1  UNL1        0.0000
     32 C           6.6194    3.6737    0.7519 C.ar    1  UNL1        0.0000
     33 C           7.2062    4.9277    0.6352 C.ar    1  UNL1        0.0000
     34 C           7.8570    5.2702   -0.5361 C.ar    1  UNL1        0.0000
     35 C           7.9095    4.3708   -1.5894 C.ar    1  UNL1        0.0000
     36 C           7.3070    3.1274   -1.4781 C.ar    1  UNL1        0.0000
     37 C           6.6572    2.7777   -0.3092 C.ar    1  UNL1        0.0000
     38 H           1.3587    8.2856    1.1944 H       1  UNL1        0.0000
     39 H           0.0382    8.3309    2.3478 H       1  UNL1        0.0000
     40 H           0.1136    7.0502    1.1558 H       1  UNL1        0.0000
     41 H           3.1707    7.1958    5.0524 H       1  UNL1        0.0000
     42 H           1.8076    8.3003    4.9057 H       1  UNL1        0.0000
     43 H           3.1929    8.4922    3.8481 H       1  UNL1        0.0000
     44 H           1.0930    4.5619    4.3892 H       1  UNL1        0.0000
     45 H          -0.1496    4.9195    3.2004 H       1  UNL1        0.0000
     46 H          -0.0555    5.8594    4.6760 H       1  UNL1        0.0000
     47 H           9.2363    2.8190    4.3350 H       1  UNL1        0.0000
     48 H           9.5360    3.9388    5.6475 H       1  UNL1        0.0000
     49 H           9.4528    4.5270    3.9972 H       1  UNL1        0.0000
     50 H           5.7858    5.9864    5.9502 H       1  UNL1        0.0000
     51 H           7.3044    6.5884    5.2690 H       1  UNL1        0.0000
     52 H           7.3050    5.7482    6.8078 H       1  UNL1        0.0000
     53 H           5.3312    2.5827    5.8213 H       1  UNL1        0.0000
     54 H           6.6178    2.7691    7.0021 H       1  UNL1        0.0000
     55 H           6.8349    1.6940    5.6360 H       1  UNL1        0.0000
     56 H           4.5409    6.8564    0.6199 H       1  UNL1        0.0000
     57 H           5.5057    7.6274   -1.5413 H       1  UNL1        0.0000
     58 H           5.3804    6.1740   -3.5288 H       1  UNL1        0.0000
     59 H           4.3221    3.9549   -3.3770 H       1  UNL1        0.0000
     60 H           3.3585    3.1924   -1.2215 H       1  UNL1        0.0000
     61 H           1.1476    5.2959   -0.4841 H       1  UNL1        0.0000
     62 H          -1.1603    4.4840   -0.8988 H       1  UNL1        0.0000
     63 H          -2.0261    2.5541    0.3625 H       1  UNL1        0.0000
     64 H          -0.6069    1.4240    2.0308 H       1  UNL1        0.0000
     65 H           1.7156    2.2477    2.4315 H       1  UNL1        0.0000
     66 H           8.3395    1.9282    2.0640 H       1  UNL1        0.0000
     67 H           9.1218   -0.3222    2.7591 H       1  UNL1        0.0000
     68 H           7.5373   -1.9108    3.7746 H       1  UNL1        0.0000
     69 H           5.1779   -1.2756    4.0968 H       1  UNL1        0.0000
     70 H           4.4046    0.9890    3.3862 H       1  UNL1        0.0000
     71 H           7.1541    5.6116    1.4776 H       1  UNL1        0.0000
     72 H           8.3235    6.2396   -0.6293 H       1  UNL1        0.0000
     73 H           8.4207    4.6396   -2.5020 H       1  UNL1        0.0000
     74 H           7.3472    2.4313   -2.3032 H       1  UNL1        0.0000
     75 H           6.1827    1.8107   -0.2020 H       1  UNL1        0.0000
@<TRIPOS>BOND
     1    58    17    1
     2    59    18    1
     3    17    18   ar
     4    17    16   ar
     5    18    19   ar
     6    73    35    1
     7    74    36    1
     8    35    36   ar
     9    35    34   ar
    10    57    16    1
    11    36    37   ar
    12    16    15   ar
    13    19    60    1
    14    19    14   ar
    15    62    22    1
    16    72    34    1
    17    34    33   ar
    18    61    21    1
    19    37    75    1
    20    37    32   ar
    21    15    14   ar
    22    15    56    1
    23    14     1    1
    24    22    21   ar
    25    22    23   ar
    26    21    20   ar
    27    63    23    1
    28    23    24   ar
    29    33    32   ar
    30    33    71    1
    31    32     2    1
    32    20     1    1
    33    20    25   ar
    34    40     8    1
    35    38     8    1
    36     1     5    1
    37     1     7    1
    38    24    25   ar
    39    24    64    1
    40    25    65    1
    41     8    39    1
    42     8     3    1
    43    66    27    1
    44     5     3    1
    45     2     7    1
    46     2    26    1
    47     2     6    1
    48    27    26   ar
    49    27    28   ar
    50    26    31   ar
    51    67    28    1
    52    28    29   ar
    53     3    10    1
    54     3     9    1
    55    45    10    1
    56    31    70    1
    57    31    30   ar
    58     6     4    1
    59    29    30   ar
    60    29    68    1
    61    30    69    1
    62    43     9    1
    63    10    44    1
    64    10    46    1
    65    49    11    1
    66    47    11    1
    67     9    42    1
    68     9    41    1
    69    11     4    1
    70    11    48    1
    71     4    12    1
    72     4    13    1
    73    51    12    1
    74    55    13    1
    75    12    50    1
    76    12    52    1
    77    53    13    1
    78    13    54    1
