@<TRIPOS>MOLECULE
5,6,7
 99 102 0 0 0
SMALL
GASTEIGER

@<TRIPOS>ATOM
      1 P           2.1079    3.8392   -6.5898 P.3     1  UNL1        0.0000
      2 P           3.4434    1.8893   -4.7177 P.3     1  UNL1        0.0000
      3 SI         -0.4030    5.3553   -5.4191 Si      1  UNL1        0.0000
      4 SI          2.0536    0.1087   -2.4736 Si      1  UNL1        0.0000
      5 N           0.9076    4.2216   -5.5106 N.3     1  UNL1        0.0000
      6 N           2.2471    1.1526   -3.8490 N.3     1  UNL1        0.0000
      7 C           2.6415    2.2393   -6.2205 C.3     1  UNL1        0.0000
      8 C          -0.4772    6.6097   -6.8602 C.3     1  UNL1        0.0000
      9 H           0.4970    7.0219   -7.0997 H       1  UNL1        0.0000
     10 H          -1.1241    7.4360   -6.5883 H       1  UNL1        0.0000
     11 H          -0.8820    6.1657   -7.7640 H       1  UNL1        0.0000
     12 C          -0.2521    6.3026   -3.7646 C.3     1  UNL1        0.0000
     13 H           0.6574    6.8920   -3.6952 H       1  UNL1        0.0000
     14 H          -0.2669    5.6118   -2.9267 H       1  UNL1        0.0000
     15 H          -1.0912    6.9801   -3.6479 H       1  UNL1        0.0000
     16 C          -2.0211    4.3225   -5.4402 C.3     1  UNL1        0.0000
     17 H          -1.8442    3.2804   -5.1558 H       1  UNL1        0.0000
     18 H          -2.5047    4.3238   -6.4137 H       1  UNL1        0.0000
     19 H          -2.7334    4.7277   -4.7289 H       1  UNL1        0.0000
     20 C           1.9161    0.9847   -0.7710 C.3     1  UNL1        0.0000
     21 H           2.8566    1.3967   -0.4160 H       1  UNL1        0.0000
     22 H           1.5879    0.2602   -0.0320 H       1  UNL1        0.0000
     23 H           1.1784    1.7818   -0.7890 H       1  UNL1        0.0000
     24 C           0.3892   -0.7544   -2.8248 C.3     1  UNL1        0.0000
     25 H           0.3818   -1.2605   -3.7873 H       1  UNL1        0.0000
     26 H          -0.4239   -0.0301   -2.8232 H       1  UNL1        0.0000
     27 H           0.1653   -1.4942   -2.0633 H       1  UNL1        0.0000
     28 C           3.4364   -1.1999   -2.2887 C.3     1  UNL1        0.0000
     29 H           4.3974   -0.7574   -2.0473 H       1  UNL1        0.0000
     30 H           3.5607   -1.8000   -3.1830 H       1  UNL1        0.0000
     31 H           3.1778   -1.8717   -1.4778 H       1  UNL1        0.0000
     32 C           3.2406    5.3066   -6.8867 C.3     1  UNL1        0.0000
     33 H           2.8437    5.8109   -7.7778 H       1  UNL1        0.0000
     34 C           3.2722    6.3037   -5.7363 C.3     1  UNL1        0.0000
     35 H           2.2623    6.6539   -5.5191 H       1  UNL1        0.0000
     36 H           3.6556    5.8153   -4.8398 H       1  UNL1        0.0000
     37 C           4.1797    7.4804   -6.0882 C.3     1  UNL1        0.0000
     38 H           4.1987    8.1924   -5.2604 H       1  UNL1        0.0000
     39 H           3.7833    7.9985   -6.9648 H       1  UNL1        0.0000
     40 C           5.5938    6.9894   -6.3868 C.3     1  UNL1        0.0000
     41 H           6.2336    7.8328   -6.6541 H       1  UNL1        0.0000
     42 H           6.0125    6.5248   -5.4906 H       1  UNL1        0.0000
     43 C           5.5753    5.9703   -7.5225 C.3     1  UNL1        0.0000
     44 H           6.5854    5.5991   -7.7081 H       1  UNL1        0.0000
     45 H           5.2245    6.4550   -8.4371 H       1  UNL1        0.0000
     46 C           4.6509    4.8043   -7.1823 C.3     1  UNL1        0.0000
     47 H           4.6325    4.0853   -8.0033 H       1  UNL1        0.0000
     48 H           5.0315    4.2763   -6.3040 H       1  UNL1        0.0000
     49 C           1.2804    3.6559   -8.2426 C.3     1  UNL1        0.0000
     50 H           0.8222    4.6221   -8.4924 H       1  UNL1        0.0000
     51 C           2.2548    3.2450   -9.3427 C.3     1  UNL1        0.0000
     52 H           2.7617    2.3287   -9.0309 H       1  UNL1        0.0000
     53 H           3.0094    4.0204   -9.4907 H       1  UNL1        0.0000
     54 C           1.5200    3.0083  -10.6612 C.3     1  UNL1        0.0000
     55 H           1.0647    3.9451  -10.9931 H       1  UNL1        0.0000
     56 H           2.2341    2.6961  -11.4262 H       1  UNL1        0.0000
     57 C           0.4339    1.9504  -10.4972 C.3     1  UNL1        0.0000
     58 H          -0.0905    1.8058  -11.4437 H       1  UNL1        0.0000
     59 H           0.8921    0.9999  -10.2173 H       1  UNL1        0.0000
     60 C          -0.5502    2.3740   -9.4119 C.3     1  UNL1        0.0000
     61 H          -1.3122    1.6058   -9.2726 H       1  UNL1        0.0000
     62 H          -1.0516    3.2968   -9.7153 H       1  UNL1        0.0000
     63 C           0.1878    2.6002   -8.0946 C.3     1  UNL1        0.0000
     64 H           0.6529    1.6549   -7.7794 H       1  UNL1        0.0000
     65 H          -0.5287    2.9144   -7.3242 H       1  UNL1        0.0000
     66 C           4.7779    0.6599   -5.0617 C.3     1  UNL1        0.0000
     67 H           5.1318    0.2378   -4.1159 H       1  UNL1        0.0000
     68 C           5.9292    1.2988   -5.8298 C.3     1  UNL1        0.0000
     69 H           5.5254    1.7544   -6.7378 H       1  UNL1        0.0000
     70 H           6.3977    2.0888   -5.2369 H       1  UNL1        0.0000
     71 C           6.9709    0.2460   -6.2010 C.3     1  UNL1        0.0000
     72 H           7.7832    0.7111   -6.7643 H       1  UNL1        0.0000
     73 H           7.3969   -0.1772   -5.2877 H       1  UNL1        0.0000
     74 C           6.3366   -0.8696   -7.0263 C.3     1  UNL1        0.0000
     75 H           7.0866   -1.6268   -7.2643 H       1  UNL1        0.0000
     76 H           5.9672   -0.4555   -7.9670 H       1  UNL1        0.0000
     77 C           5.1752   -1.5038   -6.2655 C.3     1  UNL1        0.0000
     78 H           5.5518   -1.9729   -5.3530 H       1  UNL1        0.0000
     79 H           4.7115   -2.2818   -6.8752 H       1  UNL1        0.0000
     80 C           4.1425   -0.4418   -5.9044 C.3     1  UNL1        0.0000
     81 H           3.3050   -0.8821   -5.3578 H       1  UNL1        0.0000
     82 H           3.7416    0.0103   -6.8156 H       1  UNL1        0.0000
     83 C           4.1727    3.1813   -3.5616 C.3     1  UNL1        0.0000
     84 H           4.7548    3.8883   -4.1659 H       1  UNL1        0.0000
     85 C           2.9893    3.9032   -2.9179 C.3     1  UNL1        0.0000
     86 H           2.3439    4.3398   -3.6939 H       1  UNL1        0.0000
     87 H           2.3918    3.1737   -2.3608 H       1  UNL1        0.0000
     88 C           3.4616    4.9890   -1.9541 C.3     1  UNL1        0.0000
     89 H           4.0237    5.7541   -2.4973 H       1  UNL1        0.0000
     90 H           2.5956    5.4710   -1.4979 H       1  UNL1        0.0000
     91 C           4.3517    4.3785   -0.8761 C.3     1  UNL1        0.0000
     92 H           3.7678    3.6681   -0.2885 H       1  UNL1        0.0000
     93 H           4.7096    5.1579   -0.2005 H       1  UNL1        0.0000
     94 C           5.5382    3.6616   -1.5128 C.3     1  UNL1        0.0000
     95 H           6.1616    3.2103   -0.7380 H       1  UNL1        0.0000
     96 H           6.1526    4.3891   -2.0507 H       1  UNL1        0.0000
     97 C           5.0716    2.5795   -2.4868 C.3     1  UNL1        0.0000
     98 H           4.5119    1.8131   -1.9479 H       1  UNL1        0.0000
     99 H           5.9455    2.1068   -2.9401 H       1  UNL1        0.0000
@<TRIPOS>BOND
     1    58    57    1
     2    56    54    1
     3    55    54    1
     4    54    57    1
     5    54    51    1
     6    57    59    1
     7    57    60    1
     8    62    60    1
     9    53    51    1
    10    60    61    1
    11    60    63    1
    12    51    52    1
    13    51    49    1
    14    50    49    1
    15    45    43    1
    16    49    63    1
    17    49     1    1
    18    63    64    1
    19    63    65    1
    20    47    46    1
    21    76    74    1
    22    33    32    1
    23    11     8    1
    24    44    43    1
    25    43    46    1
    26    43    40    1
    27    75    74    1
    28    46    32    1
    29    46    48    1
    30     9     8    1
    31    74    77    1
    32    74    71    1
    33    39    37    1
    34    32     1    1
    35    32    34    1
    36    79    77    1
    37     8    10    1
    38     8     3    1
    39    82    80    1
    40    72    71    1
    41    69    68    1
    42    41    40    1
    43     1     7    1
    44     1     5    1
    45    18    16    1
    46    40    37    1
    47    40    42    1
    48    77    80    1
    49    77    78    1
    50     7     2    1
    51    71    68    1
    52    71    73    1
    53    37    34    1
    54    37    38    1
    55    80    81    1
    56    80    66    1
    57    68    70    1
    58    68    66    1
    59    34    35    1
    60    34    36    1
    61     5     3    1
    62    16     3    1
    63    16    17    1
    64    16    19    1
    65     3    12    1
    66    66     2    1
    67    66    67    1
    68     2     6    1
    69     2    83    1
    70    84    83    1
    71     6     4    1
    72    25    24    1
    73    12    13    1
    74    12    15    1
    75    12    14    1
    76    86    85    1
    77    83    85    1
    78    83    97    1
    79    30    28    1
    80    99    97    1
    81    85    87    1
    82    85    88    1
    83    24    26    1
    84    24     4    1
    85    24    27    1
    86    89    88    1
    87    97    98    1
    88    97    94    1
    89     4    28    1
    90     4    20    1
    91    28    29    1
    92    28    31    1
    93    96    94    1
    94    88    90    1
    95    88    91    1
    96    94    91    1
    97    94    95    1
    98    91    92    1
    99    91    93    1
   100    23    20    1
   101    20    21    1
   102    20    22    1
