@<TRIPOS>MOLECULE
1,2,65
 71 72 0 0 0
SMALL
GASTEIGER

@<TRIPOS>ATOM
      1 N           8.3899    3.6353   12.6305 N.pl3   1  UNL1       -0.2371
      2 N           7.5251    6.0283   11.3520 N.pl3   1  UNL1       -0.2192
      3 C           9.2755    3.9621   14.9068 C.3     1  UNL1       -0.0359
      4 H           9.8274    3.0376   14.7527 H       1  UNL1        0.0255
      5 H           8.4713    3.7624   15.6157 H       1  UNL1        0.0255
      6 H           9.9334    4.7060   15.3493 H       1  UNL1        0.0255
      7 C           8.6738    4.4709   13.6149 C.3     1  UNL1        0.0968
      8 C           8.4083    5.8398   13.5605 C.2     1  UNL1       -0.0383
      9 H           8.6570    6.4079   14.4453 H       1  UNL1        0.0610
     10 C           7.8381    6.5679   12.5111 C.2     1  UNL1        0.0264
     11 C           7.6093    8.0379   12.7810 C.3     1  UNL1       -0.0248
     12 H           8.5626    8.5296   12.9700 H       1  UNL1        0.0290
     13 H           6.9913    8.1616   13.6690 H       1  UNL1        0.0290
     14 H           7.1183    8.5223   11.9402 H       1  UNL1        0.0290
     15 C           8.8191    2.2879   12.7180 C.ar    1  UNL1        0.0557
     16 C          10.0427    1.9321   12.1180 C.ar    1  UNL1       -0.0219
     17 C          10.4589    0.6115   12.1866 C.ar    1  UNL1       -0.0565
     18 H          11.4002    0.3213   11.7483 H       1  UNL1        0.0621
     19 C           9.6813   -0.3499   12.8070 C.ar    1  UNL1       -0.0611
     20 H          10.0206   -1.3743   12.8475 H       1  UNL1        0.0618
     21 C           8.4674   -0.0002   13.3649 C.ar    1  UNL1       -0.0565
     22 H           7.8607   -0.7610   13.8323 H       1  UNL1        0.0621
     23 C           8.0242    1.3147   13.3423 C.ar    1  UNL1       -0.0219
     24 C           6.6831    1.6739   13.9432 C.3     1  UNL1       -0.0197
     25 H           6.5820    2.7677   13.9466 H       1  UNL1        0.0344
     26 C           6.5514    1.1774   15.3847 C.3     1  UNL1       -0.0586
     27 H           6.5072    0.0920   15.4223 H       1  UNL1        0.0235
     28 H           5.6395    1.5679   15.8317 H       1  UNL1        0.0235
     29 H           7.3982    1.5046   15.9841 H       1  UNL1        0.0235
     30 C           5.5602    1.1035   13.0708 C.3     1  UNL1       -0.0586
     31 H           5.6323    1.5115   12.0561 H       1  UNL1        0.0235
     32 H           4.5890    1.3646   13.4865 H       1  UNL1        0.0235
     33 H           5.6301    0.0194   13.0160 H       1  UNL1        0.0235
     34 C          10.8583    2.9844   11.3961 C.3     1  UNL1       -0.0197
     35 H          10.1445    3.6906   10.9322 H       1  UNL1        0.0344
     36 C          11.7373    3.7733   12.3726 C.3     1  UNL1       -0.0586
     37 H          11.1337    4.3730   13.0466 H       1  UNL1        0.0235
     38 H          12.3948    4.4411   11.8194 H       1  UNL1        0.0235
     39 H          12.3518    3.0936   12.9610 H       1  UNL1        0.0235
     40 C          11.7360    2.3994   10.2898 C.3     1  UNL1       -0.0586
     41 H          12.6026    1.8900   10.7064 H       1  UNL1        0.0235
     42 H          12.0960    3.1989    9.6456 H       1  UNL1        0.0235
     43 H          11.1768    1.6985    9.6751 H       1  UNL1        0.0235
     44 C           6.8108    6.7698   10.3783 C.ar    1  UNL1        0.0602
     45 C           5.3999    6.7731   10.4464 C.ar    1  UNL1       -0.0213
     46 C           4.6963    7.4361    9.4538 C.ar    1  UNL1       -0.0565
     47 H           3.6183    7.4572    9.4754 H       1  UNL1        0.0621
     48 C           5.3576    8.0869    8.4247 C.ar    1  UNL1       -0.0611
     49 H           4.7906    8.6033    7.6641 H       1  UNL1        0.0618
     50 C           6.7361    8.0794    8.3697 C.ar    1  UNL1       -0.0565
     51 H           7.2383    8.5946    7.5653 H       1  UNL1        0.0621
     52 C           7.4837    7.4223    9.3387 C.ar    1  UNL1       -0.0216
     53 C           8.9949    7.4238    9.2840 C.3     1  UNL1       -0.0197
     54 H           9.3617    6.7231   10.0455 H       1  UNL1        0.0344
     55 C           9.5422    8.8187    9.5989 C.3     1  UNL1       -0.0586
     56 H          10.6301    8.8082    9.5840 H       1  UNL1        0.0235
     57 H           9.2141    9.1500   10.5807 H       1  UNL1        0.0235
     58 H           9.1943    9.5390    8.8615 H       1  UNL1        0.0235
     59 C           9.5066    6.9536    7.9222 C.3     1  UNL1       -0.0586
     60 H           9.0606    5.9939    7.6648 H       1  UNL1        0.0235
     61 H          10.5890    6.8429    7.9506 H       1  UNL1        0.0235
     62 H           9.2580    7.6660    7.1393 H       1  UNL1        0.0235
     63 C           4.7289    6.0399   11.5934 C.3     1  UNL1       -0.0168
     64 H           5.2430    6.3392   12.5196 H       1  UNL1        0.0347
     65 C           4.8753    4.5016   11.4316 C.3     1  UNL1       -0.0459
     66 H           4.1473    4.2097   10.6521 H       1  UNL1        0.0271
     67 H           4.4881    4.0617   12.3695 H       1  UNL1        0.0271
     68 C           3.2533    6.4237   11.7666 C.3     1  UNL1       -0.0583
     69 H           3.1328    7.5027   11.8493 H       1  UNL1        0.0236
     70 H           2.8674    5.9672   12.6766 H       1  UNL1        0.0236
     71 H           2.6539    6.0627   10.9331 H       1  UNL1        0.0236
@<TRIPOS>BOND
     1    62    59    1
     2    51    50    1
     3    49    48    1
     4    60    59    1
     5    59    61    1
     6    59    53    1
     7    50    48   ar
     8    50    52   ar
     9    48    46   ar
    10    58    55    1
    11    53    52    1
    12    53    55    1
    13    53    54    1
    14    52    44   ar
    15    46    47    1
    16    46    45   ar
    17    56    55    1
    18    55    57    1
    19    42    40    1
    20    43    40    1
    21    40    41    1
    22    40    34    1
    23    44    45   ar
    24    44     2    1
    25    45    63    1
    26    66    65    1
    27    35    34    1
    28    71    68    1
    29     2    10    1
    30    34    16    1
    31    34    36    1
    32    65    63    1
    33    65    67    1
    34    63    68    1
    35    63    64    1
    36    18    17    1
    37    68    69    1
    38    68    70    1
    39    38    36    1
    40    14    11    1
    41    31    30    1
    42    16    17   ar
    43    16    15   ar
    44    17    19   ar
    45    36    39    1
    46    36    37    1
    47    10    11    1
    48    10     8    2
    49     1    15    1
    50     1     7    1
    51    15    23   ar
    52    11    12    1
    53    11    13    1
    54    19    20    1
    55    19    21   ar
    56    33    30    1
    57    30    32    1
    58    30    24    1
    59    23    21   ar
    60    23    24    1
    61    21    22    1
    62     8     7    1
    63     8     9    1
    64     7     3    1
    65    24    25    1
    66    24    26    1
    67     4     3    1
    68     3     6    1
    69     3     5    1
    70    26    27    1
    71    26    28    1
    72    26    29    1
