@<TRIPOS>MOLECULE
52,64,65
 69 73 0 0 0
SMALL
GASTEIGER

@<TRIPOS>ATOM
      1 B          10.1872   23.4892    3.6179 B       1  UNL1        0.0000
      2 C          11.1362   19.1139    2.1775 C.3     1  UNL1        0.0000
      3 H          10.1821   18.6127    2.0553 H       1  UNL1        0.0000
      4 H          11.9359   18.3810    2.0929 H       1  UNL1        0.0000
      5 H          11.2457   19.8494    1.3829 H       1  UNL1        0.0000
      6 C          11.2073   19.7985    3.5441 C.3     1  UNL1        0.0000
      7 C          11.0022   18.7817    4.6618 C.3     1  UNL1        0.0000
      8 H          10.9645   19.2782    5.6301 H       1  UNL1        0.0000
      9 H          11.8256   18.0703    4.6659 H       1  UNL1        0.0000
     10 H          10.0742   18.2384    4.5060 H       1  UNL1        0.0000
     11 C          12.5472   20.5600    3.6986 C.3     1  UNL1        0.0000
     12 H          13.0267   20.3786    4.6668 H       1  UNL1        0.0000
     13 H          13.2592   20.3378    2.9009 H       1  UNL1        0.0000
     14 C          10.8585   22.0158    3.5991 C.3     1  UNL1        0.0000
     15 C           6.8569   23.3860    7.0025 C.3     1  UNL1        0.0000
     16 H           6.6120   24.2176    6.3443 H       1  UNL1        0.0000
     17 H           6.5818   23.6474    8.0218 H       1  UNL1        0.0000
     18 H           6.2824   22.5159    6.6926 H       1  UNL1        0.0000
     19 C           8.3496   23.0673    6.9266 C.3     1  UNL1        0.0000
     20 C           8.6990   21.9200    7.8739 C.3     1  UNL1        0.0000
     21 H           8.0602   21.0638    7.6791 H       1  UNL1        0.0000
     22 H           8.5520   22.2346    8.9051 H       1  UNL1        0.0000
     23 H           9.7373   21.6207    7.7412 H       1  UNL1        0.0000
     24 C           9.2238   24.3149    7.2075 C.3     1  UNL1        0.0000
     25 H           8.6319   25.2073    7.4293 H       1  UNL1        0.0000
     26 H           9.9448   24.1536    8.0140 H       1  UNL1        0.0000
     27 C           9.5865   23.5893    5.1215 C.3     1  UNL1        0.0000
     28 C           8.6308   24.4548    1.7993 C.2     1  UNL1        0.0000
     29 H           9.2781   25.2882    1.6208 H       1  UNL1        0.0000
     30 C           7.4313   24.1440    1.2558 C.2     1  UNL1        0.0000
     31 H           6.8338   24.6431    0.5206 H       1  UNL1        0.0000
     32 C           5.7858   22.3767    1.4962 C.ar    1  UNL1        0.0000
     33 C           5.6831   21.6633    0.3040 C.ar    1  UNL1        0.0000
     34 C           6.8600   21.4946   -0.6087 C.3     1  UNL1        0.0000
     35 H           6.8013   20.5408   -1.1264 H       1  UNL1        0.0000
     36 H           7.7981   21.5415   -0.0631 H       1  UNL1        0.0000
     37 H           6.8618   22.2860   -1.3601 H       1  UNL1        0.0000
     38 C           4.4441   21.1576   -0.0633 C.ar    1  UNL1        0.0000
     39 H           4.3589   20.6041   -0.9870 H       1  UNL1        0.0000
     40 C           3.3190   21.3573    0.7184 C.ar    1  UNL1        0.0000
     41 C           1.9792   20.8422    0.2925 C.3     1  UNL1        0.0000
     42 H           1.3694   21.6604   -0.0921 H       1  UNL1        0.0000
     43 H           1.4550   20.4010    1.1365 H       1  UNL1        0.0000
     44 H           2.0816   20.0932   -0.4876 H       1  UNL1        0.0000
     45 C           3.4449   22.0939    1.8886 C.ar    1  UNL1        0.0000
     46 H           2.5687   22.2741    2.4948 H       1  UNL1        0.0000
     47 C           4.6607   22.6235    2.2860 C.ar    1  UNL1        0.0000
     48 C           4.7556   23.5032    3.4951 C.3     1  UNL1        0.0000
     49 H           5.5916   23.2062    4.1248 H       1  UNL1        0.0000
     50 H           3.8392   23.4546    4.0769 H       1  UNL1        0.0000
     51 H           4.9180   24.5383    3.1904 H       1  UNL1        0.0000
     52 C           7.9619   22.5562    2.7345 C.3     1  UNL1        0.0000
     53 C          11.2490   24.5825    3.1083 C.ar    1  UNL1        0.0000
     54 C          11.6250   25.7231    3.8105 C.ar    1  UNL1        0.0000
     55 H          11.1888   25.9164    4.7778 H       1  UNL1        0.0000
     56 C          12.5509   26.6183    3.3002 C.ar    1  UNL1        0.0000
     57 H          12.8234   27.4946    3.8727 H       1  UNL1        0.0000
     58 C          13.1273   26.3970    2.0629 C.ar    1  UNL1        0.0000
     59 H          13.8506   27.0940    1.6631 H       1  UNL1        0.0000
     60 C          12.7675   25.2717    1.3408 C.ar    1  UNL1        0.0000
     61 H          13.2097   25.0872    0.3711 H       1  UNL1        0.0000
     62 C          11.8440   24.3844    1.8604 C.ar    1  UNL1        0.0000
     63 H          11.5712   23.5119    1.2802 H       1  UNL1        0.0000
     64 N          10.2306   20.8969    3.6061 N.3     1  UNL1        0.0000
     65 N           8.7273   22.7413    5.5499 N.3     1  UNL1        0.0000
     66 N           8.9428   23.4758    2.6949 N.pl3   1  UNL1        0.0000
     67 N           7.0279   22.9733    1.8440 N.pl3   1  UNL1        0.0000
     68 O          12.1901   21.9334    3.6219 O.3     1  UNL1        0.0000
     69 O           9.9398   24.5348    5.9967 O.3     1  UNL1        0.0000
@<TRIPOS>BOND
     1    37    34    1
     2    35    34    1
     3    39    38    1
     4    34    36    1
     5    34    33    1
     6    44    41    1
     7    42    41    1
     8    38    33   ar
     9    38    40   ar
    10    41    40    1
    11    41    43    1
    12    33    32   ar
    13    61    60    1
    14    31    30    1
    15    40    45   ar
    16    30    28    2
    17    30    67    1
    18    63    62    1
    19    60    62   ar
    20    60    58   ar
    21     5     2    1
    22    32    67    1
    23    32    47   ar
    24    29    28    1
    25    59    58    1
    26    28    66    1
    27    67    52    1
    28    62    53   ar
    29    45    47   ar
    30    45    46    1
    31     3     2    1
    32    58    56   ar
    33     4     2    1
    34     2     6    1
    35    47    48    1
    36    66    52    1
    37    66     1    1
    38    13    11    1
    39    53     1    1
    40    53    54   ar
    41    51    48    1
    42    56    54   ar
    43    56    57    1
    44    48    50    1
    45    48    49    1
    46     6    64    1
    47     6    11    1
    48     6     7    1
    49    14    64    1
    50    14     1    1
    51    14    68    1
    52     1    27    1
    53    68    11    1
    54    11    12    1
    55    54    55    1
    56    10     7    1
    57     7     9    1
    58     7     8    1
    59    27    65    1
    60    27    69    1
    61    65    19    1
    62    69    24    1
    63    16    15    1
    64    18    15    1
    65    19    15    1
    66    19    24    1
    67    19    20    1
    68    15    17    1
    69    24    25    1
    70    24    26    1
    71    21    20    1
    72    23    20    1
    73    20    22    1
