@<TRIPOS>MOLECULE
1,49,63
 76 79 0 0 0
SMALL
GASTEIGER

@<TRIPOS>ATOM
      1 C          -0.3395   17.8251   13.2724 C.3     1  UNL1        0.0000
      2 H           0.0030   18.8480   13.4893 H       1  UNL1        0.0000
      3 P           0.9815   16.9360   12.4947 P.3     1  UNL1        0.0000
      4 P          -1.0783   17.1770   14.7419 P.3     1  UNL1        0.0000
      5 C           2.3094   16.3517   13.5984 C.ar    1  UNL1        0.0000
      6 C           2.6589   15.0089   13.6132 C.ar    1  UNL1        0.0000
      7 H           2.1323   14.3284   12.9585 H       1  UNL1        0.0000
      8 C           3.6633   14.5678   14.4560 C.ar    1  UNL1        0.0000
      9 H           3.9399   13.5235   14.4654 H       1  UNL1        0.0000
     10 C           4.3151   15.4651   15.2866 C.ar    1  UNL1        0.0000
     11 H           5.1030   15.1217   15.9408 H       1  UNL1        0.0000
     12 C           3.9548   16.8041   15.2867 C.ar    1  UNL1        0.0000
     13 H           4.4570   17.4998   15.9430 H       1  UNL1        0.0000
     14 C           2.9498   17.2471   14.4489 C.ar    1  UNL1        0.0000
     15 H           2.6542   18.2886   14.4461 H       1  UNL1        0.0000
     16 C           1.7750   18.2413   11.5057 C.ar    1  UNL1        0.0000
     17 C           3.1325   18.5293   11.4848 C.ar    1  UNL1        0.0000
     18 H           3.8140   17.9814   12.1202 H       1  UNL1        0.0000
     19 C           3.6126   19.5213   10.6468 C.ar    1  UNL1        0.0000
     20 H           4.6693   19.7462   10.6333 H       1  UNL1        0.0000
     21 C           2.7445   20.2219    9.8255 C.ar    1  UNL1        0.0000
     22 H           3.1254   20.9940    9.1732 H       1  UNL1        0.0000
     23 C           1.3892   19.9312    9.8399 C.ar    1  UNL1        0.0000
     24 H           0.7110   20.4753    9.1996 H       1  UNL1        0.0000
     25 C           0.9060   18.9417   10.6756 C.ar    1  UNL1        0.0000
     26 H          -0.1530   18.7049   10.7056 H       1  UNL1        0.0000
     27 C           0.0308   17.0125   16.1864 C.ar    1  UNL1        0.0000
     28 C           0.2322   17.9382   17.2014 C.ar    1  UNL1        0.0000
     29 H          -0.3263   18.8617   17.2224 H       1  UNL1        0.0000
     30 C           1.1318   17.6615   18.2170 C.ar    1  UNL1        0.0000
     31 H           1.2817   18.3831   19.0072 H       1  UNL1        0.0000
     32 C           1.8302   16.4662   18.2303 C.ar    1  UNL1        0.0000
     33 H           2.5279   16.2578   19.0279 H       1  UNL1        0.0000
     34 C           1.6219   15.5336   17.2266 C.ar    1  UNL1        0.0000
     35 H           2.1514   14.5924   17.2400 H       1  UNL1        0.0000
     36 C           0.7301   15.8097   16.2098 C.ar    1  UNL1        0.0000
     37 H           0.5401   15.0920   15.4236 H       1  UNL1        0.0000
     38 C          -2.2706   18.5300   15.0481 C.ar    1  UNL1        0.0000
     39 C          -1.8988   19.8272   15.3874 C.ar    1  UNL1        0.0000
     40 H          -0.8579   20.0707   15.5502 H       1  UNL1        0.0000
     41 C          -2.8562   20.8198   15.4964 C.ar    1  UNL1        0.0000
     42 H          -2.5599   21.8235   15.7654 H       1  UNL1        0.0000
     43 C          -4.1893   20.5294   15.2576 C.ar    1  UNL1        0.0000
     44 H          -4.9353   21.3041   15.3570 H       1  UNL1        0.0000
     45 C          -4.5601   19.2516   14.8728 C.ar    1  UNL1        0.0000
     46 H          -5.5945   19.0254   14.6629 H       1  UNL1        0.0000
     47 C          -3.6018   18.2617   14.7457 C.ar    1  UNL1        0.0000
     48 H          -3.8845   17.2658   14.4143 H       1  UNL1        0.0000
     49 N           0.3885   15.7434   11.6107 N.3     1  UNL1        0.0000
     50 SI          1.1739   15.2015   10.1515 Si      1  UNL1        0.0000
     51 C           0.2684   16.0849    8.7063 C.3     1  UNL1        0.0000
     52 H          -0.7730   16.2797    8.9727 H       1  UNL1        0.0000
     53 H           0.2718   15.4829    7.8038 H       1  UNL1        0.0000
     54 H           0.7342   17.0369    8.4649 H       1  UNL1        0.0000
     55 C           0.9446   13.3147    9.9809 C.3     1  UNL1        0.0000
     56 H          -0.0329   12.9925   10.3227 H       1  UNL1        0.0000
     57 H           1.6907   12.7658   10.5464 H       1  UNL1        0.0000
     58 H           1.0521   13.0249    8.9411 H       1  UNL1        0.0000
     59 C           3.0471   15.5606   10.0081 C.3     1  UNL1        0.0000
     60 H           3.2368   16.5661    9.6463 H       1  UNL1        0.0000
     61 H           3.5163   14.8689    9.3160 H       1  UNL1        0.0000
     62 H           3.5448   15.4569   10.9675 H       1  UNL1        0.0000
     63 N          -1.7793   15.7793   14.4544 N.3     1  UNL1        0.0000
     64 SI         -2.6807   14.9751   15.7244 Si      1  UNL1        0.0000
     65 C          -4.2727   14.3495   14.8826 C.3     1  UNL1        0.0000
     66 H          -4.0523   13.9759   13.8811 H       1  UNL1        0.0000
     67 H          -5.0262   15.1279   14.7895 H       1  UNL1        0.0000
     68 H          -4.7157   13.5395   15.4520 H       1  UNL1        0.0000
     69 C          -1.7020   13.5099   16.4672 C.3     1  UNL1        0.0000
     70 H          -1.2162   12.9233   15.6965 H       1  UNL1        0.0000
     71 H          -2.3820   12.8549   17.0016 H       1  UNL1        0.0000
     72 H          -0.9435   13.8410   17.1697 H       1  UNL1        0.0000
     73 C          -3.1325   16.1174   17.1978 C.3     1  UNL1        0.0000
     74 H          -2.3370   16.8352   17.3812 H       1  UNL1        0.0000
     75 H          -3.2713   15.5423   18.1075 H       1  UNL1        0.0000
     76 H          -4.0444   16.6797   17.0217 H       1  UNL1        0.0000
@<TRIPOS>BOND
     1    53    51    1
     2    54    51    1
     3    51    52    1
     4    51    50    1
     5    58    55    1
     6    22    21    1
     7    24    23    1
     8    61    59    1
     9    60    59    1
    10    21    23   ar
    11    21    19   ar
    12    23    25   ar
    13    55    50    1
    14    55    56    1
    15    55    57    1
    16    59    50    1
    17    59    62    1
    18    50    49    1
    19    20    19    1
    20    19    17   ar
    21    25    26    1
    22    25    16   ar
    23    17    16   ar
    24    17    18    1
    25    16     3    1
    26    49     3    1
    27     3     1    1
    28     3     5    1
    29     7     6    1
    30     1     2    1
    31     1     4    1
    32     5     6   ar
    33     5    14   ar
    34     6     8   ar
    35    66    65    1
    36    48    47    1
    37    15    14    1
    38    14    12   ar
    39    63     4    1
    40    63    64    1
    41     8     9    1
    42     8    10   ar
    43    46    45    1
    44     4    38    1
    45     4    27    1
    46    47    45   ar
    47    47    38   ar
    48    67    65    1
    49    45    43   ar
    50    65    68    1
    51    65    64    1
    52    38    39   ar
    53    43    44    1
    54    43    41   ar
    55    10    12   ar
    56    10    11    1
    57    12    13    1
    58    39    41   ar
    59    39    40    1
    60    37    36    1
    61    41    42    1
    62    70    69    1
    63    64    69    1
    64    64    73    1
    65    27    36   ar
    66    27    28   ar
    67    36    34   ar
    68    69    71    1
    69    69    72    1
    70    76    73    1
    71    73    74    1
    72    73    75    1
    73    28    29    1
    74    28    30   ar
    75    34    35    1
    76    34    32   ar
    77    30    32   ar
    78    30    31    1
    79    32    33    1
