@<TRIPOS>MOLECULE
1,48,62
 75 78 0 0 0
SMALL
GASTEIGER

@<TRIPOS>ATOM
      1 C          -4.5712   15.4840   11.6276 C.3     1  UNL1        0.0000
      2 P          -4.1237   13.9508   10.9684 P.3     1  UNL1        0.0000
      3 P          -4.6795   16.8643   10.5999 P.3     1  UNL1        0.0000
      4 C          -6.1259   17.7193   11.3242 C.ar    1  UNL1        0.0000
      5 C          -6.0315   18.9627   11.9292 C.ar    1  UNL1        0.0000
      6 H          -5.0801   19.4728   11.9360 H       1  UNL1        0.0000
      7 C          -7.1418   19.5348   12.5286 C.ar    1  UNL1        0.0000
      8 H          -7.0642   20.5132   12.9831 H       1  UNL1        0.0000
      9 C          -8.3481   18.8566   12.5503 C.ar    1  UNL1        0.0000
     10 H          -9.2156   19.3063   13.0120 H       1  UNL1        0.0000
     11 C          -8.4344   17.5866   11.9996 C.ar    1  UNL1        0.0000
     12 H          -9.3667   17.0412   12.0433 H       1  UNL1        0.0000
     13 C          -7.3266   17.0171   11.4027 C.ar    1  UNL1        0.0000
     14 H          -7.3697   16.0104   11.0081 H       1  UNL1        0.0000
     15 C          -5.0966   16.7210    8.8267 C.ar    1  UNL1        0.0000
     16 C          -6.3768   16.7418    8.2888 C.ar    1  UNL1        0.0000
     17 H          -7.2358   16.8700    8.9307 H       1  UNL1        0.0000
     18 C          -6.5533   16.6275    6.9210 C.ar    1  UNL1        0.0000
     19 H          -7.5520   16.6534    6.5082 H       1  UNL1        0.0000
     20 C          -5.4618   16.4908    6.0804 C.ar    1  UNL1        0.0000
     21 H          -5.6072   16.4090    5.0131 H       1  UNL1        0.0000
     22 C          -4.1827   16.4640    6.6124 C.ar    1  UNL1        0.0000
     23 H          -3.3256   16.3606    5.9625 H       1  UNL1        0.0000
     24 C          -4.0059   16.5733    7.9766 C.ar    1  UNL1        0.0000
     25 H          -3.0140   16.5632    8.4098 H       1  UNL1        0.0000
     26 C          -5.4378   12.7451   11.3548 C.ar    1  UNL1        0.0000
     27 C          -6.3975   13.0872   12.2965 C.ar    1  UNL1        0.0000
     28 H          -6.3583   14.0777   12.7302 H       1  UNL1        0.0000
     29 C          -7.3811   12.1810   12.6496 C.ar    1  UNL1        0.0000
     30 H          -8.1264   12.4494   13.3851 H       1  UNL1        0.0000
     31 C          -7.4138   10.9298   12.0558 C.ar    1  UNL1        0.0000
     32 H          -8.1835   10.2213   12.3268 H       1  UNL1        0.0000
     33 C          -6.4598   10.5860   11.1100 C.ar    1  UNL1        0.0000
     34 H          -6.4877    9.6100   10.6460 H       1  UNL1        0.0000
     35 C          -5.4725   11.4887   10.7614 C.ar    1  UNL1        0.0000
     36 H          -4.7209   11.2272   10.0301 H       1  UNL1        0.0000
     37 C          -3.9613   13.6961    9.1667 C.ar    1  UNL1        0.0000
     38 C          -5.0692   13.5077    8.3485 C.ar    1  UNL1        0.0000
     39 H          -6.0591   13.5044    8.7851 H       1  UNL1        0.0000
     40 C          -4.8975   13.3168    6.9907 C.ar    1  UNL1        0.0000
     41 H          -5.7580   13.1625    6.3556 H       1  UNL1        0.0000
     42 C          -3.6241   13.3177    6.4430 C.ar    1  UNL1        0.0000
     43 H          -3.4943   13.1560    5.3826 H       1  UNL1        0.0000
     44 C          -2.5197   13.5293    7.2531 C.ar    1  UNL1        0.0000
     45 H          -1.5269   13.5354    6.8252 H       1  UNL1        0.0000
     46 C          -2.6887   13.7255    8.6111 C.ar    1  UNL1        0.0000
     47 H          -1.8399   13.8864    9.2681 H       1  UNL1        0.0000
     48 N          -2.7249   13.5140   11.6786 N.3     1  UNL1        0.0000
     49 SI         -2.1799   11.9407   12.1407 Si      1  UNL1        0.0000
     50 C          -0.4969   12.2734   12.9986 C.3     1  UNL1        0.0000
     51 H           0.3367   11.8860   12.4251 H       1  UNL1        0.0000
     52 H          -0.4653   11.7846   13.9665 H       1  UNL1        0.0000
     53 H          -0.3421   13.3416   13.1484 H       1  UNL1        0.0000
     54 C          -1.9324   10.7217   10.6710 C.3     1  UNL1        0.0000
     55 H          -2.6645    9.9208   10.7073 H       1  UNL1        0.0000
     56 H          -0.9494   10.2618   10.6997 H       1  UNL1        0.0000
     57 H          -2.0358   11.2178    9.7098 H       1  UNL1        0.0000
     58 C          -3.2645   11.0343   13.4371 C.3     1  UNL1        0.0000
     59 H          -4.2815   10.8843   13.0905 H       1  UNL1        0.0000
     60 H          -3.3124   11.5932   14.3663 H       1  UNL1        0.0000
     61 H          -2.8445   10.0574   13.6592 H       1  UNL1        0.0000
     62 N          -3.3378   17.7811   10.7228 N.3     1  UNL1        0.0000
     63 SI         -3.1938   19.3314    9.9520 Si      1  UNL1        0.0000
     64 C          -4.7937   20.1117    9.2422 C.3     1  UNL1        0.0000
     65 H          -5.2335   20.8494    9.9063 H       1  UNL1        0.0000
     66 H          -5.5431   19.3462    9.0641 H       1  UNL1        0.0000
     67 H          -4.5961   20.6022    8.2936 H       1  UNL1        0.0000
     68 C          -2.4438   20.4851   11.2950 C.3     1  UNL1        0.0000
     69 H          -2.1071   19.9198   12.1619 H       1  UNL1        0.0000
     70 H          -3.1666   21.2160   11.6438 H       1  UNL1        0.0000
     71 H          -1.5956   21.0359   10.9038 H       1  UNL1        0.0000
     72 C          -2.0154   19.2906    8.4349 C.3     1  UNL1        0.0000
     73 H          -1.1410   18.6667    8.5832 H       1  UNL1        0.0000
     74 H          -1.6717   20.2976    8.2183 H       1  UNL1        0.0000
     75 H          -2.5312   18.9284    7.5506 H       1  UNL1        0.0000
@<TRIPOS>BOND
     1    21    20    1
     2    43    42    1
     3    23    22    1
     4    20    22   ar
     5    20    18   ar
     6    41    40    1
     7    42    40   ar
     8    42    44   ar
     9    19    18    1
    10    22    24   ar
    11    45    44    1
    12    18    16   ar
    13    40    38   ar
    14    44    46   ar
    15    75    72    1
    16    24    25    1
    17    24    15   ar
    18    74    72    1
    19    16    15   ar
    20    16    17    1
    21    67    64    1
    22    38    39    1
    23    38    37   ar
    24    72    73    1
    25    72    63    1
    26    46    37   ar
    27    46    47    1
    28    15     3    1
    29    66    64    1
    30    37     2    1
    31    64    65    1
    32    64    63    1
    33    57    54    1
    34    63    62    1
    35    63    68    1
    36    36    35    1
    37     3    62    1
    38     3     4    1
    39     3     1    1
    40    34    33    1
    41    54    56    1
    42    54    55    1
    43    54    49    1
    44    35    33   ar
    45    35    26   ar
    46    71    68    1
    47     2    26    1
    48     2     1    1
    49     2    48    1
    50    14    13    1
    51    33    31   ar
    52    68    70    1
    53    68    69    1
    54     4    13   ar
    55     4     5   ar
    56    26    27   ar
    57    13    11   ar
    58    48    49    1
    59     5     6    1
    60     5     7   ar
    61    11    12    1
    62    11     9   ar
    63    31    32    1
    64    31    29   ar
    65    49    50    1
    66    49    58    1
    67    27    29   ar
    68    27    28    1
    69    51    50    1
    70     7     9   ar
    71     7     8    1
    72     9    10    1
    73    29    30    1
    74    50    53    1
    75    50    52    1
    76    59    58    1
    77    58    61    1
    78    58    60    1
