@<TRIPOS>MOLECULE
2,3,63
 83 87 0 0 0
SMALL
GASTEIGER

@<TRIPOS>ATOM
      1 P           3.5150    4.6483   17.4611 P.3     1  UNL1        0.0542
      2 N           4.3531    5.6599   14.7464 N.pl3   1  UNL1       -0.2137
      3 N           3.7948    6.2045   17.7578 N.pl3   1  UNL1       -0.2182
      4 C           4.9481    5.9629   13.4993 C.ar    1  UNL1        0.0606
      5 C           4.7133    7.2077   12.8851 C.ar    1  UNL1       -0.0216
      6 C           5.2767    7.4680   11.6436 C.ar    1  UNL1       -0.0565
      7 H           5.0803    8.4094   11.1523 H       1  UNL1        0.0621
      8 C           6.0720    6.5287   11.0120 C.ar    1  UNL1       -0.0611
      9 H           6.4928    6.7411   10.0400 H       1  UNL1        0.0618
     10 C           6.3190    5.3147   11.6272 C.ar    1  UNL1       -0.0565
     11 H           6.9346    4.5834   11.1232 H       1  UNL1        0.0621
     12 C           5.7684    5.0117   12.8633 C.ar    1  UNL1       -0.0216
     13 C           6.0390    3.6721   13.5102 C.3     1  UNL1       -0.0197
     14 H           5.5822    3.6694   14.5065 H       1  UNL1        0.0344
     15 C           7.5414    3.4483   13.6914 C.3     1  UNL1       -0.0586
     16 H           8.0483    3.3754   12.7314 H       1  UNL1        0.0235
     17 H           7.7151    2.5261   14.2422 H       1  UNL1        0.0235
     18 H           7.9677    4.2740   14.2567 H       1  UNL1        0.0235
     19 C           5.4104    2.5357   12.7015 C.3     1  UNL1       -0.0586
     20 H           4.3352    2.6804   12.6217 H       1  UNL1        0.0235
     21 H           5.5933    1.5829   13.1942 H       1  UNL1        0.0235
     22 H           5.8303    2.4931   11.6986 H       1  UNL1        0.0235
     23 C           3.8142    8.2240   13.5545 C.3     1  UNL1       -0.0197
     24 H           3.6589    7.9005   14.5952 H       1  UNL1        0.0344
     25 C           2.4494    8.2590   12.8611 C.3     1  UNL1       -0.0586
     26 H           2.5592    8.5422   11.8160 H       1  UNL1        0.0235
     27 H           1.7964    8.9797   13.3492 H       1  UNL1        0.0235
     28 H           1.9770    7.2804   12.9062 H       1  UNL1        0.0235
     29 C           4.4396    9.6203   13.5812 C.3     1  UNL1       -0.0586
     30 H           5.4279    9.5877   14.0371 H       1  UNL1        0.0235
     31 H           3.8141   10.2947   14.1629 H       1  UNL1        0.0235
     32 H           4.5320   10.0314   12.5787 H       1  UNL1        0.0235
     33 C           3.2378    4.9003   14.7073 C.ar    1  UNL1        0.0630
     34 C           2.5708    4.5876   13.4965 C.ar    1  UNL1       -0.0380
     35 H           2.9769    4.9714   12.5710 H       1  UNL1        0.0637
     36 C           1.4376    3.8144   13.4710 C.ar    1  UNL1       -0.0599
     37 H           0.9610    3.6038   12.5230 H       1  UNL1        0.0618
     38 C           0.8992    3.2931   14.6434 C.ar    1  UNL1       -0.0610
     39 H           0.0141    2.6762   14.6164 H       1  UNL1        0.0618
     40 C           1.5239    3.5705   15.8410 C.ar    1  UNL1       -0.0506
     41 H           1.1295    3.1556   16.7592 H       1  UNL1        0.0625
     42 C           2.6611    4.3703   15.8944 C.ar    1  UNL1        0.0217
     43 C           2.4690    3.9739   18.7811 C.ar    1  UNL1       -0.0012
     44 C           1.2236    4.5781   18.9317 C.ar    1  UNL1       -0.0524
     45 H           0.9041    5.3181   18.2106 H       1  UNL1        0.0624
     46 C           0.4071    4.2323   19.9910 C.ar    1  UNL1       -0.0611
     47 H          -0.5567    4.7056   20.1060 H       1  UNL1        0.0618
     48 C           0.8305    3.2828   20.9074 C.ar    1  UNL1       -0.0617
     49 H           0.1940    3.0109   21.7365 H       1  UNL1        0.0618
     50 C           2.0724    2.6869   20.7648 C.ar    1  UNL1       -0.0611
     51 H           2.4042    1.9513   21.4835 H       1  UNL1        0.0618
     52 C           2.8983    3.0373   19.7105 C.ar    1  UNL1       -0.0524
     53 H           3.8756    2.5860   19.6145 H       1  UNL1        0.0624
     54 C           5.0709    3.7035   17.3455 C.ar    1  UNL1        0.0065
     55 C           5.0052    2.3135   17.3349 C.ar    1  UNL1       -0.0518
     56 H           4.0399    1.8201   17.3397 H       1  UNL1        0.0625
     57 C           6.1757    1.5804   17.2964 C.ar    1  UNL1       -0.0611
     58 H           6.1467    0.4998   17.2919 H       1  UNL1        0.0618
     59 C           7.3875    2.2524   17.2704 C.ar    1  UNL1       -0.0611
     60 H           8.3113    1.6884   17.2701 H       1  UNL1        0.0618
     61 C           7.4254    3.6383   17.2131 C.ar    1  UNL1       -0.0534
     62 H           8.4039    4.1108   17.1739 H       1  UNL1        0.0624
     63 C           6.2717    4.4380   17.2267 C.ar    1  UNL1       -0.0079
     64 C           3.1795    6.8953   18.8181 C.ar    1  UNL1        0.0586
     65 C           2.2162    7.8694   18.5136 C.ar    1  UNL1       -0.0270
     66 C           1.8842    8.1504   17.0795 C.3     1  UNL1       -0.0379
     67 H           0.9692    8.7326   16.9977 H       1  UNL1        0.0278
     68 H           1.7685    7.2185   16.5230 H       1  UNL1        0.0278
     69 H           2.6989    8.7139   16.6182 H       1  UNL1        0.0278
     70 C           1.5906    8.5594   19.5367 C.ar    1  UNL1       -0.0541
     71 H           0.8456    9.3040   19.2911 H       1  UNL1        0.0623
     72 C           1.8900    8.3094   20.8688 C.ar    1  UNL1       -0.0498
     73 C           1.2070    9.0688   21.9666 C.3     1  UNL1       -0.0397
     74 H           1.1456    8.4691   22.8719 H       1  UNL1        0.0278
     75 H           0.2031    9.3628   21.6685 H       1  UNL1        0.0278
     76 H           1.7684    9.9745   22.1995 H       1  UNL1        0.0278
     77 C           2.8620    7.3645   21.1552 C.ar    1  UNL1       -0.0541
     78 H           3.1255    7.1690   22.1857 H       1  UNL1        0.0623
     79 C           3.5206    6.6618   20.1565 C.ar    1  UNL1       -0.0270
     80 C           4.6139    5.7088   20.5386 C.3     1  UNL1       -0.0379
     81 H           4.2632    4.9998   21.2875 H       1  UNL1        0.0278
     82 H           5.4495    6.2659   20.9642 H       1  UNL1        0.0278
     83 H           4.9800    5.1555   19.6721 H       1  UNL1        0.0278
@<TRIPOS>BOND
     1     9     8    1
     2     8    10   ar
     3     8     6   ar
     4    11    10    1
     5     7     6    1
     6    10    12   ar
     7     6     5   ar
     8    22    19    1
     9    26    25    1
    10    37    36    1
    11    35    34    1
    12    32    29    1
    13    20    19    1
    14    19    21    1
    15    19    13    1
    16    16    15    1
    17    25    28    1
    18    25    27    1
    19    25    23    1
    20    12     4   ar
    21    12    13    1
    22     5     4   ar
    23     5    23    1
    24    36    34   ar
    25    36    38   ar
    26    34    33   ar
    27     4     2    1
    28    13    15    1
    29    13    14    1
    30    23    29    1
    31    23    24    1
    32    29    30    1
    33    29    31    1
    34    15    17    1
    35    15    18    1
    36    39    38    1
    37    38    40   ar
    38    33     2    1
    39    33    42   ar
    40    40    42   ar
    41    40    41    1
    42    42     1    1
    43    68    66    1
    44    69    66    1
    45    67    66    1
    46    66    65    1
    47    62    61    1
    48    61    63   ar
    49    61    59   ar
    50    63    54   ar
    51    60    59    1
    52    59    57   ar
    53    58    57    1
    54    57    55   ar
    55    55    56    1
    56    55    54   ar
    57    54     1    1
    58     1     3    1
    59     1    43    1
    60     3    64    1
    61    45    44    1
    62    65    64   ar
    63    65    70   ar
    64    43    44   ar
    65    43    52   ar
    66    64    79   ar
    67    44    46   ar
    68    71    70    1
    69    70    72   ar
    70    53    52    1
    71    83    80    1
    72    52    50   ar
    73    46    47    1
    74    46    48   ar
    75    79    80    1
    76    79    77   ar
    77    80    82    1
    78    80    81    1
    79    50    48   ar
    80    50    51    1
    81    72    77   ar
    82    72    73    1
    83    48    49    1
    84    77    78    1
    85    75    73    1
    86    73    76    1
    87    73    74    1
