@<TRIPOS>MOLECULE
3,4,5
 40 40 0 0 0
SMALL
GASTEIGER

@<TRIPOS>ATOM
      1 SI          6.8053    0.6167   15.3821 Si      1  UNL1        0.0000
      2 SI          4.7428    4.1097   11.6609 Si      1  UNL1        0.0000
      3 N           6.0880    2.0301   14.7022 N.3     1  UNL1        0.0000
      4 N           5.2380    3.4352   13.1715 N.3     1  UNL1        0.0000
      5 C           5.8542    2.3025   13.4347 C.3     1  UNL1        0.0000
      6 C           6.2665    1.3646   12.3621 C.ar    1  UNL1        0.0000
      7 C           7.4538    1.5702   11.6709 C.ar    1  UNL1        0.0000
      8 H           8.0570    2.4349   11.9037 H       1  UNL1        0.0000
      9 C           7.8546    0.6722   10.6978 C.ar    1  UNL1        0.0000
     10 H           8.7817    0.8319   10.1667 H       1  UNL1        0.0000
     11 C           7.0700   -0.4304   10.4029 C.ar    1  UNL1        0.0000
     12 H           7.3845   -1.1310    9.6436 H       1  UNL1        0.0000
     13 C           5.8791   -0.6309   11.0806 C.ar    1  UNL1        0.0000
     14 H           5.2618   -1.4861   10.8465 H       1  UNL1        0.0000
     15 C           5.4782    0.2620   12.0586 C.ar    1  UNL1        0.0000
     16 H           4.5469    0.1145   12.5860 H       1  UNL1        0.0000
     17 C           5.5121   -0.7903   15.5581 C.3     1  UNL1        0.0000
     18 H           5.2872   -1.2462   14.5986 H       1  UNL1        0.0000
     19 H           4.5777   -0.4324   15.9820 H       1  UNL1        0.0000
     20 H           5.8863   -1.5739   16.2088 H       1  UNL1        0.0000
     21 C           7.3773    1.1507   17.1314 C.3     1  UNL1        0.0000
     22 H           8.4005    1.5148   17.1180 H       1  UNL1        0.0000
     23 H           7.3532    0.3047   17.8106 H       1  UNL1        0.0000
     24 H           6.7467    1.9359   17.5489 H       1  UNL1        0.0000
     25 C           8.3207   -0.1021   14.4596 C.3     1  UNL1        0.0000
     26 H           9.0168    0.6775   14.1654 H       1  UNL1        0.0000
     27 H           8.0294   -0.6349   13.5601 H       1  UNL1        0.0000
     28 H           8.8583   -0.7982   15.0955 H       1  UNL1        0.0000
     29 C           2.8683    4.4569   11.8684 C.3     1  UNL1        0.0000
     30 H           2.2752    3.5938   11.5801 H       1  UNL1        0.0000
     31 H           2.5522    5.2870   11.2455 H       1  UNL1        0.0000
     32 H           2.6245    4.6972   12.9010 H       1  UNL1        0.0000
     33 C           5.7502    5.7288   11.4449 C.3     1  UNL1        0.0000
     34 H           6.0680    6.1243   12.4075 H       1  UNL1        0.0000
     35 H           5.1650    6.4919   10.9425 H       1  UNL1        0.0000
     36 H           6.6414    5.5616   10.8474 H       1  UNL1        0.0000
     37 C           4.9351    3.0899   10.0535 C.3     1  UNL1        0.0000
     38 H           4.4554    2.1196   10.1317 H       1  UNL1        0.0000
     39 H           5.9761    2.9170    9.8019 H       1  UNL1        0.0000
     40 H           4.4781    3.6170    9.2218 H       1  UNL1        0.0000
@<TRIPOS>BOND
     1    40    37    1
     2    12    11    1
     3    39    37    1
     4    37    38    1
     5    37     2    1
     6    10     9    1
     7    11     9   ar
     8    11    13   ar
     9     9     7   ar
    10    14    13    1
    11    36    33    1
    12    35    33    1
    13    13    15   ar
    14    31    29    1
    15    33     2    1
    16    33    34    1
    17    30    29    1
    18     2    29    1
    19     2     4    1
    20     7     8    1
    21     7     6   ar
    22    29    32    1
    23    15     6   ar
    24    15    16    1
    25     6     5    1
    26     4     5    1
    27     5     3    1
    28    27    25    1
    29    26    25    1
    30    25    28    1
    31    25     1    1
    32    18    17    1
    33     3     1    1
    34     1    17    1
    35     1    21    1
    36    17    19    1
    37    17    20    1
    38    22    21    1
    39    21    24    1
    40    21    23    1
