@<TRIPOS>MOLECULE
3,4,5
 40 40 0 0 0
SMALL
GASTEIGER

@<TRIPOS>ATOM
      1 SI          0.2774    5.9224    5.1315 Si      1  UNL1        0.0000
      2 SI          4.5402    4.7168    1.9610 Si      1  UNL1        0.0000
      3 N           1.3544    4.9026    4.2292 N.3     1  UNL1        0.0000
      4 N           3.1520    4.4682    2.9455 N.3     1  UNL1        0.0000
      5 C           2.4192    5.3503    3.5910 C.3     1  UNL1        0.0000
      6 C           2.8117    6.7830    3.5755 C.ar    1  UNL1        0.0000
      7 C           3.5633    7.3207    4.6130 C.ar    1  UNL1        0.0000
      8 C           3.9566    8.6470    4.5765 C.ar    1  UNL1        0.0000
      9 C           3.6063    9.4488    3.5036 C.ar    1  UNL1        0.0000
     10 C           2.8613    8.9171    2.4644 C.ar    1  UNL1        0.0000
     11 C           2.4681    7.5914    2.4982 C.ar    1  UNL1        0.0000
     12 C          -0.1664    7.6007    4.3200 C.3     1  UNL1        0.0000
     13 C          -1.4009    5.0416    5.3769 C.3     1  UNL1        0.0000
     14 C           0.9785    6.3105    6.8770 C.3     1  UNL1        0.0000
     15 C           5.0498    2.9213    1.5338 C.3     1  UNL1        0.0000
     16 C           4.1896    5.6434    0.3140 C.3     1  UNL1        0.0000
     17 C           5.9640    5.6594    2.8333 C.3     1  UNL1        0.0000
     18 H           3.8448    6.6947    5.4451 H       1  UNL1        0.0000
     19 H           4.5402    9.0564    5.3882 H       1  UNL1        0.0000
     20 H           3.9123   10.4842    3.4771 H       1  UNL1        0.0000
     21 H           2.5837    9.5387    1.6257 H       1  UNL1        0.0000
     22 H           1.8795    7.1807    1.6921 H       1  UNL1        0.0000
     23 H          -1.0719    8.0030    4.7633 H       1  UNL1        0.0000
     24 H          -0.3456    7.4911    3.2553 H       1  UNL1        0.0000
     25 H           0.6163    8.3410    4.4478 H       1  UNL1        0.0000
     26 H          -1.3255    4.1345    5.9672 H       1  UNL1        0.0000
     27 H          -1.8705    4.7966    4.4294 H       1  UNL1        0.0000
     28 H          -2.0718    5.7110    5.9063 H       1  UNL1        0.0000
     29 H           1.8079    7.0093    6.8306 H       1  UNL1        0.0000
     30 H           0.2101    6.7593    7.4983 H       1  UNL1        0.0000
     31 H           1.3280    5.4171    7.3859 H       1  UNL1        0.0000
     32 H           5.4244    2.8395    0.5182 H       1  UNL1        0.0000
     33 H           4.1914    2.2542    1.6405 H       1  UNL1        0.0000
     34 H           5.8346    2.5687    2.1951 H       1  UNL1        0.0000
     35 H           5.0043    5.4968   -0.3883 H       1  UNL1        0.0000
     36 H           4.0890    6.7121    0.4746 H       1  UNL1        0.0000
     37 H           3.2792    5.2929   -0.1639 H       1  UNL1        0.0000
     38 H           6.9228    5.4289    2.3800 H       1  UNL1        0.0000
     39 H           5.8195    6.7333    2.7654 H       1  UNL1        0.0000
     40 H           6.0230    5.4050    3.8870 H       1  UNL1        0.0000
@<TRIPOS>BOND
     1    35    16    1
     2    37    16    1
     3    16    36    1
     4    16     2    1
     5    32    15    1
     6    15    33    1
     7    15     2    1
     8    15    34    1
     9    21    10    1
    10    22    11    1
    11     2    17    1
    12     2     4    1
    13    38    17    1
    14    10    11   ar
    15    10     9   ar
    16    11     6   ar
    17    39    17    1
    18    17    40    1
    19     4     5    1
    20    24    12    1
    21    20     9    1
    22     9     8   ar
    23     6     5    1
    24     6     7   ar
    25     5     3    1
    26     3     1    1
    27    12    25    1
    28    12    23    1
    29    12     1    1
    30    27    13    1
    31     8     7   ar
    32     8    19    1
    33     7    18    1
    34     1    13    1
    35     1    14    1
    36    13    28    1
    37    13    26    1
    38    29    14    1
    39    14    31    1
    40    14    30    1
