@<TRIPOS>MOLECULE
1,2,3
 51 53 0 0 0
SMALL
GASTEIGER

@<TRIPOS>ATOM
      1 C           4.1715    5.9230    3.5215 C.3     1  UNL1        0.1403
      2 N           5.3486    5.4042    3.8573 N.3     1  UNL1       -0.2104
      3 N           3.1753    5.0553    3.4977 N.3     1  UNL1       -0.2104
      4 C           3.9501    7.3925    3.1968 C.3     1  UNL1        0.0099
      5 H           4.8919    7.8627    2.9111 H       1  UNL1        0.0346
      6 H           3.2842    7.4747    2.3376 H       1  UNL1        0.0346
      7 C           3.3672    8.1461    4.3632 C.ar    1  UNL1       -0.0441
      8 C           2.3335    9.0554    4.1717 C.ar    1  UNL1       -0.0585
      9 H           1.9291    9.2045    3.1795 H       1  UNL1        0.0620
     10 C           1.8187    9.7746    5.2356 C.ar    1  UNL1       -0.0615
     11 H           1.0143   10.4767    5.0697 H       1  UNL1        0.0618
     12 C           2.3338    9.5976    6.5082 C.ar    1  UNL1       -0.0617
     13 H           1.9343   10.1609    7.3386 H       1  UNL1        0.0618
     14 C           3.3612    8.6923    6.7093 C.ar    1  UNL1       -0.0615
     15 H           3.7665    8.5457    7.7001 H       1  UNL1        0.0618
     16 C           3.8714    7.9690    5.6462 C.ar    1  UNL1       -0.0585
     17 H           4.6586    7.2498    5.8136 H       1  UNL1        0.0620
     18 C           1.8221    5.4483    3.1431 C.3     1  UNL1        0.0276
     19 H           1.5974    6.4685    3.4890 H       1  UNL1        0.0477
     20 C           1.6129    5.3656    1.6226 C.3     1  UNL1       -0.0359
     21 H           2.3002    6.0398    1.1066 H       1  UNL1        0.0281
     22 H           1.8566    4.3490    1.3073 H       1  UNL1        0.0281
     23 C           0.1741    5.7021    1.2465 C.3     1  UNL1       -0.0516
     24 H          -0.0571    6.7227    1.5633 H       1  UNL1        0.0266
     25 H           0.0540    5.6544    0.1613 H       1  UNL1        0.0266
     26 C          -0.7896    4.7332    1.9218 C.3     1  UNL1       -0.0530
     27 H          -0.5986    3.7230    1.5546 H       1  UNL1        0.0265
     28 H          -1.8205    4.9921    1.6677 H       1  UNL1        0.0265
     29 C          -0.6017    4.7724    3.4350 C.3     1  UNL1       -0.0516
     30 H          -1.2573    4.0386    3.9105 H       1  UNL1        0.0266
     31 H          -0.8844    5.7622    3.8042 H       1  UNL1        0.0266
     32 C           0.8455    4.4889    3.8269 C.3     1  UNL1       -0.0359
     33 H           0.9570    4.5848    4.9047 H       1  UNL1        0.0281
     34 H           1.1276    3.4676    3.5580 H       1  UNL1        0.0281
     35 C           6.5481    6.2308    3.8327 C.3     1  UNL1        0.0276
     36 H           6.3229    7.2657    4.1329 H       1  UNL1        0.0477
     37 C           7.5893    5.7108    4.8259 C.3     1  UNL1       -0.0359
     38 H           7.8344    4.6775    4.5766 H       1  UNL1        0.0281
     39 H           7.1696    5.7246    5.8347 H       1  UNL1        0.0281
     40 C           8.8519    6.5689    4.7878 C.3     1  UNL1       -0.0516
     41 H           8.6076    7.5846    5.1101 H       1  UNL1        0.0266
     42 H           9.5889    6.1672    5.4871 H       1  UNL1        0.0266
     43 C           9.4436    6.6184    3.3822 C.3     1  UNL1       -0.0530
     44 H          10.3245    7.2642    3.3738 H       1  UNL1        0.0265
     45 H           9.7610    5.6175    3.0819 H       1  UNL1        0.0265
     46 C           8.4087    7.1339    2.3880 C.3     1  UNL1       -0.0516
     47 H           8.8297    7.1402    1.3800 H       1  UNL1        0.0266
     48 H           8.1408    8.1626    2.6439 H       1  UNL1        0.0266
     49 C           7.1599    6.2592    2.4213 C.3     1  UNL1       -0.0359
     50 H           6.4198    6.6289    1.7074 H       1  UNL1        0.0281
     51 H           7.4149    5.2392    2.1250 H       1  UNL1        0.0281
@<TRIPOS>BOND
     1    25    23    1
     2    21    20    1
     3    23    24    1
     4    23    20    1
     5    23    26    1
     6    22    20    1
     7    47    46    1
     8    27    26    1
     9    20    18    1
    10    28    26    1
    11    50    49    1
    12    26    29    1
    13    51    49    1
    14     6     4    1
    15    46    49    1
    16    46    48    1
    17    46    43    1
    18    49    35    1
    19     5     4    1
    20    45    43    1
    21    18    19    1
    22    18     3    1
    23    18    32    1
    24     9     8    1
    25     4     1    1
    26     4     7    1
    27    44    43    1
    28    43    40    1
    29    29    31    1
    30    29    32    1
    31    29    30    1
    32     3     1    1
    33     1     2    1
    34    34    32    1
    35    32    33    1
    36    35     2    1
    37    35    36    1
    38    35    37    1
    39     8     7   ar
    40     8    10   ar
    41     7    16   ar
    42    38    37    1
    43    40    37    1
    44    40    41    1
    45    40    42    1
    46    37    39    1
    47    11    10    1
    48    10    12   ar
    49    16    17    1
    50    16    14   ar
    51    12    14   ar
    52    12    13    1
    53    14    15    1
