@<TRIPOS>MOLECULE
1,3,6
 75 78 0 0 0
SMALL
GASTEIGER

@<TRIPOS>ATOM
      1 C           6.3889    5.7212   13.6452 C.3     1  UNL1        0.0000
      2 P           4.8864    6.5533   13.5384 P.3     1  UNL1        0.0000
      3 N           3.9900    6.0815   14.8155 N.3     1  UNL1        0.0000
      4 SI          2.2632    6.1773   14.9154 Si      1  UNL1        0.0000
      5 P           7.8168    6.6133   13.9869 P.3     1  UNL1        0.0000
      6 N           8.1448    6.4643   15.5852 N.3     1  UNL1        0.0000
      7 SI          9.6483    6.6483   16.4175 Si      1  UNL1        0.0000
      8 C           4.0274    6.0108   12.0300 C.ar    1  UNL1        0.0000
      9 C           4.2711    4.6884   11.6801 C.ar    1  UNL1        0.0000
     10 H           4.9917    4.1349   12.2691 H       1  UNL1        0.0000
     11 C           3.6207    4.1115   10.6073 C.ar    1  UNL1        0.0000
     12 H           3.8130    3.0813   10.3418 H       1  UNL1        0.0000
     13 C           2.7184    4.8611    9.8686 C.ar    1  UNL1        0.0000
     14 H           2.2077    4.4180    9.0259 H       1  UNL1        0.0000
     15 C           2.4698    6.1796   10.2127 C.ar    1  UNL1        0.0000
     16 H           1.7638    6.7628    9.6379 H       1  UNL1        0.0000
     17 C           3.1157    6.7546   11.2933 C.ar    1  UNL1        0.0000
     18 H           2.9074    7.7809   11.5621 H       1  UNL1        0.0000
     19 C           4.8391    8.3707   13.4306 C.ar    1  UNL1        0.0000
     20 C           5.1105    9.0513   12.2490 C.ar    1  UNL1        0.0000
     21 H           5.3404    8.4896   11.3533 H       1  UNL1        0.0000
     22 C           5.0763   10.4329   12.2295 C.ar    1  UNL1        0.0000
     23 H           5.2721   10.9629   11.3084 H       1  UNL1        0.0000
     24 C           4.7905   11.1396   13.3869 C.ar    1  UNL1        0.0000
     25 H           4.7570   12.2190   13.3645 H       1  UNL1        0.0000
     26 C           4.5540   10.4638   14.5733 C.ar    1  UNL1        0.0000
     27 H           4.3389   11.0195   15.4756 H       1  UNL1        0.0000
     28 C           4.5840    9.0820   14.5973 C.ar    1  UNL1        0.0000
     29 H           4.3841    8.5245   15.5120 H       1  UNL1        0.0000
     30 C           9.1682    5.8409   13.0413 C.ar    1  UNL1        0.0000
     31 C          10.4047    6.4531   12.8812 C.ar    1  UNL1        0.0000
     32 H          10.5668    7.4401   13.2928 H       1  UNL1        0.0000
     33 C          11.4157    5.8045   12.1963 C.ar    1  UNL1        0.0000
     34 H          12.3746    6.2866   12.0664 H       1  UNL1        0.0000
     35 C          11.2035    4.5369   11.6776 C.ar    1  UNL1        0.0000
     36 H          11.9972    4.0317   11.1464 H       1  UNL1        0.0000
     37 C           9.9716    3.9225   11.8336 C.ar    1  UNL1        0.0000
     38 H           9.8029    2.9375   11.4208 H       1  UNL1        0.0000
     39 C           8.9573    4.5775   12.5071 C.ar    1  UNL1        0.0000
     40 H           7.9734    4.1386   12.6112 H       1  UNL1        0.0000
     41 C           8.0028    8.3606   13.5126 C.ar    1  UNL1        0.0000
     42 C           7.8244    9.3357   14.4840 C.ar    1  UNL1        0.0000
     43 H           7.6155    9.0187   15.4990 H       1  UNL1        0.0000
     44 C           7.9435   10.6723   14.1534 C.ar    1  UNL1        0.0000
     45 H           7.8136   11.4310   14.9121 H       1  UNL1        0.0000
     46 C           8.2360   11.0366   12.8491 C.ar    1  UNL1        0.0000
     47 H           8.3402   12.0805   12.5910 H       1  UNL1        0.0000
     48 C           8.3906   10.0647   11.8725 C.ar    1  UNL1        0.0000
     49 H           8.6108   10.3530   10.8543 H       1  UNL1        0.0000
     50 C           8.2642    8.7276   12.1978 C.ar    1  UNL1        0.0000
     51 H           8.3764    7.9588   11.4445 H       1  UNL1        0.0000
     52 C           1.4037    4.8640   13.8174 C.3     1  UNL1        0.0000
     53 H           1.3387    5.1835   12.7826 H       1  UNL1        0.0000
     54 H           0.3946    4.6812   14.1718 H       1  UNL1        0.0000
     55 H           1.9382    3.9186   13.8332 H       1  UNL1        0.0000
     56 C           1.4785    7.8789   14.5101 C.3     1  UNL1        0.0000
     57 H           1.8549    8.2833   13.5758 H       1  UNL1        0.0000
     58 H           1.6803    8.6117   15.2863 H       1  UNL1        0.0000
     59 H           0.4005    7.7860   14.4190 H       1  UNL1        0.0000
     60 C           1.8641    5.7724   16.7385 C.3     1  UNL1        0.0000
     61 H           0.8372    6.0350   16.9664 H       1  UNL1        0.0000
     62 H           2.5093    6.3122   17.4258 H       1  UNL1        0.0000
     63 H           1.9831    4.7126   16.9363 H       1  UNL1        0.0000
     64 C           9.1786    6.2850   18.2388 C.3     1  UNL1        0.0000
     65 H           8.1302    6.5123   18.4329 H       1  UNL1        0.0000
     66 H           9.7844    6.8716   18.9217 H       1  UNL1        0.0000
     67 H           9.3431    5.2390   18.4770 H       1  UNL1        0.0000
     68 C          10.4492    8.3896   16.3346 C.3     1  UNL1        0.0000
     69 H          10.5369    8.7483   15.3135 H       1  UNL1        0.0000
     70 H          11.4466    8.3638   16.7629 H       1  UNL1        0.0000
     71 H           9.8745    9.1281   16.8863 H       1  UNL1        0.0000
     72 C          10.9972    5.3778   15.9247 C.3     1  UNL1        0.0000
     73 H          10.5677    4.4376   15.5908 H       1  UNL1        0.0000
     74 H          11.6395    5.1668   16.7742 H       1  UNL1        0.0000
     75 H          11.6256    5.7497   15.1228 H       1  UNL1        0.0000
@<TRIPOS>BOND
     1    14    13    1
     2    16    15    1
     3    13    15   ar
     4    13    11   ar
     5    15    17   ar
     6    12    11    1
     7    11     9   ar
     8    49    48    1
     9    36    35    1
    10    17    18    1
    11    17     8   ar
    12    23    22    1
    13    21    20    1
    14    38    37    1
    15    51    50    1
    16    35    37   ar
    17    35    33   ar
    18     9     8   ar
    19     9    10    1
    20    37    39   ar
    21    48    50   ar
    22    48    46   ar
    23     8     2    1
    24    34    33    1
    25    33    31   ar
    26    50    41   ar
    27    22    20   ar
    28    22    24   ar
    29    20    19   ar
    30    39    40    1
    31    39    30   ar
    32    47    46    1
    33    53    52    1
    34    46    44   ar
    35    31    30   ar
    36    31    32    1
    37    30     5    1
    38    25    24    1
    39    24    26   ar
    40    19     2    1
    41    19    28   ar
    42    41     5    1
    43    41    42   ar
    44     2     1    1
    45     2     3    1
    46    57    56    1
    47     1     5    1
    48    52    55    1
    49    52    54    1
    50    52     4    1
    51     5     6    1
    52    44    42   ar
    53    44    45    1
    54    59    56    1
    55    42    43    1
    56    56     4    1
    57    56    58    1
    58    26    28   ar
    59    26    27    1
    60    28    29    1
    61     3     4    1
    62     4    60    1
    63    75    72    1
    64    69    68    1
    65     6     7    1
    66    73    72    1
    67    72     7    1
    68    72    74    1
    69    68     7    1
    70    68    70    1
    71    68    71    1
    72     7    64    1
    73    60    63    1
    74    60    61    1
    75    60    62    1
    76    64    65    1
    77    64    67    1
    78    64    66    1
