@<TRIPOS>MOLECULE
6,10,51
 51 51 0 0 0
SMALL
GASTEIGER

@<TRIPOS>ATOM
      1 SI          0.6945    7.8754   15.9209 Si      1  UNL1        0.0000
      2 N           3.1790    4.0640   15.9085 N.3     1  UNL1        0.0000
      3 C           1.9942    4.9124   16.0155 C.3     1  UNL1        0.0000
      4 H           2.1566    5.6880   16.7856 H       1  UNL1        0.0000
      5 SI          2.7911    3.6028   13.0401 Si      1  UNL1        0.0000
      6 N           1.2766    6.8485   14.6652 N.3     1  UNL1        0.0000
      7 C           0.7345    4.1747   16.4016 C.ar    1  UNL1        0.0000
      8 C           0.4372    4.0083   17.7518 C.ar    1  UNL1        0.0000
      9 H           1.1009    4.4198   18.4999 H       1  UNL1        0.0000
     10 N           2.1179    5.1129   13.5392 N.3     1  UNL1        0.0000
     11 C          -0.6941    3.3220   18.1514 C.ar    1  UNL1        0.0000
     12 H          -0.9068    3.2013   19.2038 H       1  UNL1        0.0000
     13 C          -1.5519    2.7926   17.2023 C.ar    1  UNL1        0.0000
     14 H          -2.4332    2.2496   17.5105 H       1  UNL1        0.0000
     15 C          -1.2772    2.9742   15.8587 C.ar    1  UNL1        0.0000
     16 H          -1.9447    2.5731   15.1120 H       1  UNL1        0.0000
     17 C          -0.1488    3.6699   15.4587 C.ar    1  UNL1        0.0000
     18 H           0.0407    3.8280   14.4091 H       1  UNL1        0.0000
     19 C           3.2528    2.9828   16.8681 C.3     1  UNL1        0.0000
     20 H           4.1319    2.3811   16.6378 H       1  UNL1        0.0000
     21 H           2.3719    2.3496   16.7910 H       1  UNL1        0.0000
     22 H           3.3407    3.3367   17.9069 H       1  UNL1        0.0000
     23 C           4.3570    4.9023   16.0036 C.3     1  UNL1        0.0000
     24 H           5.2473    4.2996   15.8398 H       1  UNL1        0.0000
     25 H           4.4402    5.3863   16.9909 H       1  UNL1        0.0000
     26 H           4.3060    5.6780   15.2425 H       1  UNL1        0.0000
     27 C           4.6746    3.3155   13.2059 C.3     1  UNL1        0.0000
     28 H           5.2284    4.2459   13.2471 H       1  UNL1        0.0000
     29 H           5.0320    2.7590   12.3451 H       1  UNL1        0.0000
     30 H           4.9155    2.7393   14.0907 H       1  UNL1        0.0000
     31 C           1.8979    1.9809   13.5162 C.3     1  UNL1        0.0000
     32 H           0.8931    1.9453   13.1067 H       1  UNL1        0.0000
     33 H           1.8231    1.8538   14.5889 H       1  UNL1        0.0000
     34 H           2.4422    1.1301   13.1188 H       1  UNL1        0.0000
     35 C           2.5032    3.8407   11.1468 C.3     1  UNL1        0.0000
     36 H           1.4560    4.0721   10.9360 H       1  UNL1        0.0000
     37 H           2.7569    2.9495   10.5807 H       1  UNL1        0.0000
     38 H           3.1209    4.6556   10.7660 H       1  UNL1        0.0000
     39 C          -0.8073    7.1798   16.8811 C.3     1  UNL1        0.0000
     40 H          -1.4314    6.5705   16.2344 H       1  UNL1        0.0000
     41 H          -1.4219    7.9807   17.2793 H       1  UNL1        0.0000
     42 H          -0.5021    6.5539   17.7133 H       1  UNL1        0.0000
     43 C           0.1342    9.3917   14.8998 C.3     1  UNL1        0.0000
     44 H          -0.5963    9.1066   14.1442 H       1  UNL1        0.0000
     45 H           0.9840    9.8477   14.3945 H       1  UNL1        0.0000
     46 H          -0.3182   10.1519   15.5281 H       1  UNL1        0.0000
     47 C           2.0481    8.4324   17.1591 C.3     1  UNL1        0.0000
     48 H           3.0168    8.4868   16.6701 H       1  UNL1        0.0000
     49 H           2.1380    7.7544   18.0029 H       1  UNL1        0.0000
     50 H           1.8253    9.4159   17.5600 H       1  UNL1        0.0000
     51 C           1.8010    5.6386   14.6986 C.3     1  UNL1        0.0000
@<TRIPOS>BOND
     1    37    35    1
     2    38    35    1
     3    36    35    1
     4    35     5    1
     5    29    27    1
     6     5    27    1
     7     5    31    1
     8     5    10    1
     9    32    31    1
    10    34    31    1
    11    27    28    1
    12    27    30    1
    13    31    33    1
    14    10    51    1
    15    44    43    1
    16    45    43    1
    17    18    17    1
    18     6    51    1
    19     6     1    1
    20    51     3    1
    21    43    46    1
    22    43     1    1
    23    16    15    1
    24    26    23    1
    25    17    15   ar
    26    17     7   ar
    27    24    23    1
    28    15    13   ar
    29     2    23    1
    30     2     3    1
    31     2    19    1
    32     1    39    1
    33     1    47    1
    34    23    25    1
    35     3     7    1
    36     3     4    1
    37    40    39    1
    38     7     8   ar
    39    20    19    1
    40    48    47    1
    41    21    19    1
    42    19    22    1
    43    39    41    1
    44    39    42    1
    45    47    50    1
    46    47    49    1
    47    13    14    1
    48    13    11   ar
    49     8    11   ar
    50     8     9    1
    51    11    12    1
