@<TRIPOS>MOLECULE
1,2,3
 33 33 0 0 0
SMALL
GASTEIGER

@<TRIPOS>ATOM
      1 N           1.4358    5.2273    3.9279 N.3     1  UNL1       -0.2999
      2 N          -0.7210    3.3408    3.3149 N.3     1  UNL1       -0.3071
      3 C           2.3970    2.7675    3.4182 C.2     1  UNL1       -0.0132
      4 C           2.6658    1.3911    3.3761 C.2     1  UNL1       -0.0537
      5 C           3.4704    0.7657    4.3144 C.2     1  UNL1       -0.0612
      6 C           4.0368    1.4880    5.3518 C.2     1  UNL1       -0.0614
      7 C           3.8076    2.8522    5.4259 C.2     1  UNL1       -0.0568
      8 C           3.0147    3.4659    4.4715 C.2     1  UNL1       -0.0257
      9 C           2.7813    4.9547    4.4653 C.3     1  UNL1        0.0244
     10 C           0.4363    4.8242    4.9298 C.3     1  UNL1        0.0117
     11 C          -0.8818    4.4583    4.2548 C.3     1  UNL1        0.0111
     12 C          -0.6420    2.0772    4.0471 C.3     1  UNL1       -0.0130
     13 C          -1.9177    3.2948    2.4697 C.3     1  UNL1       -0.0130
     14 C           1.3293    6.6643    3.6580 C.3     1  UNL1       -0.0124
     15 H           2.2416    0.7920    2.5768 H       1  UNL1        0.0624
     16 H           3.6546   -0.2975    4.2406 H       1  UNL1        0.0618
     17 H           4.6544    0.9980    6.0898 H       1  UNL1        0.0618
     18 H           4.2538    3.4370    6.2201 H       1  UNL1        0.0621
     19 H           2.8951    5.3981    5.4675 H       1  UNL1        0.0476
     20 H           3.5133    5.4239    3.7974 H       1  UNL1        0.0476
     21 H           0.2648    5.6334    5.6558 H       1  UNL1        0.0439
     22 H           0.8253    3.9594    5.4780 H       1  UNL1        0.0439
     23 H          -1.6341    4.2137    5.0235 H       1  UNL1        0.0439
     24 H          -1.2446    5.3226    3.6908 H       1  UNL1        0.0439
     25 H           0.2205    2.0588    4.7110 H       1  UNL1        0.0391
     26 H          -1.5511    1.9103    4.6432 H       1  UNL1        0.0391
     27 H          -0.5320    1.2554    3.3418 H       1  UNL1        0.0391
     28 H          -1.8964    2.4066    1.8424 H       1  UNL1        0.0391
     29 H          -2.8304    3.2625    3.0819 H       1  UNL1        0.0391
     30 H          -1.9538    4.1727    1.8256 H       1  UNL1        0.0391
     31 H           2.0069    6.9278    2.8457 H       1  UNL1        0.0391
     32 H           0.3200    6.9255    3.3458 H       1  UNL1        0.0391
     33 H           1.5876    7.2472    4.5526 H       1  UNL1        0.0391
@<TRIPOS>BOND
     1    30    13    1
     2    28    13    1
     3    13    29    1
     4    13     2    1
     5    15     4    1
     6    31    14    1
     7     2    12    1
     8     2    11    1
     9    27    12    1
    10    32    14    1
    11     4     3    2
    12     4     5    1
    13     3     8    1
    14    14     1    1
    15    14    33    1
    16    24    11    1
    17    20     9    1
    18     1     9    1
    19     1    10    1
    20    12    26    1
    21    12    25    1
    22    16     5    1
    23    11    10    1
    24    11    23    1
    25     5     6    2
    26     9     8    1
    27     9    19    1
    28     8     7    2
    29    10    22    1
    30    10    21    1
    31     6     7    1
    32     6    17    1
    33     7    18    1
