@<TRIPOS>MOLECULE
2,3,4
 46 47 0 0 0
SMALL
GASTEIGER

@<TRIPOS>ATOM
      1 P           0.4629   11.2972    6.2712 P.3     1  UNL1       -0.0005
      2 N           0.9033    8.4628    6.4246 N.3     1  UNL1       -0.2065
      3 N           0.6119    9.2930    4.3703 N.3     1  UNL1       -0.2065
      4 C           0.6701    9.5193    5.6742 C.3     1  UNL1        0.1683
      5 C           0.9382    8.4591    7.8684 C.3     1  UNL1        0.0223
      6 H           1.0279    9.4787    8.2687 H       1  UNL1        0.0472
      7 C           2.1493    7.6429    8.3307 C.3     1  UNL1       -0.0483
      8 H           2.1149    6.6447    7.8888 H       1  UNL1        0.0245
      9 H           2.1490    7.5486    9.4143 H       1  UNL1        0.0245
     10 H           3.0794    8.1171    8.0258 H       1  UNL1        0.0245
     11 C          -0.3476    7.8299    8.4209 C.3     1  UNL1       -0.0483
     12 H          -1.2225    8.3565    8.0474 H       1  UNL1        0.0245
     13 H          -0.3528    7.8775    9.5073 H       1  UNL1        0.0245
     14 H          -0.4073    6.7882    8.1125 H       1  UNL1        0.0245
     15 C           0.4496   10.3702    3.4140 C.3     1  UNL1        0.0223
     16 H          -0.2113   11.1531    3.8272 H       1  UNL1        0.0472
     17 C           1.8062   11.0107    3.1038 C.3     1  UNL1       -0.0483
     18 H           2.2279   11.4393    4.0136 H       1  UNL1        0.0245
     19 H           1.6964   11.8009    2.3653 H       1  UNL1        0.0245
     20 H           2.4938   10.2583    2.7211 H       1  UNL1        0.0245
     21 C          -0.1983    9.8117    2.1469 C.3     1  UNL1       -0.0483
     22 H           0.3546    8.9372    1.8016 H       1  UNL1        0.0245
     23 H          -0.2010   10.5648    1.3626 H       1  UNL1        0.0245
     24 H          -1.2269    9.5164    2.3438 H       1  UNL1        0.0245
     25 C           2.0014   11.5349    7.2292 C.ar    1  UNL1       -0.0158
     26 C           3.1299   10.7402    7.0461 C.ar    1  UNL1       -0.0537
     27 H           3.0875    9.8856    6.3845 H       1  UNL1        0.0624
     28 C           4.3021   11.0296    7.7200 C.ar    1  UNL1       -0.0612
     29 H           5.1621   10.3897    7.5891 H       1  UNL1        0.0618
     30 C           4.3731   12.1270    8.5616 C.ar    1  UNL1       -0.0617
     31 H           5.2881   12.3464    9.0918 H       1  UNL1        0.0618
     32 C           3.2713   12.9549    8.7063 C.ar    1  UNL1       -0.0612
     33 H           3.3296   13.8289    9.3391 H       1  UNL1        0.0618
     34 C           2.0986   12.6710    8.0327 C.ar    1  UNL1       -0.0537
     35 H           1.2497   13.3366    8.1185 H       1  UNL1        0.0624
     36 C          -0.8510   11.0477    7.5225 C.ar    1  UNL1       -0.0158
     37 C          -0.7588   11.3253    8.8822 C.ar    1  UNL1       -0.0537
     38 H           0.1806   11.6421    9.3122 H       1  UNL1        0.0624
     39 C          -1.8654   11.1762    9.6984 C.ar    1  UNL1       -0.0612
     40 H          -1.7802   11.3877   10.7548 H       1  UNL1        0.0618
     41 C          -3.0773   10.7603    9.1731 C.ar    1  UNL1       -0.0617
     42 H          -3.9377   10.6481    9.8162 H       1  UNL1        0.0618
     43 C          -3.1817   10.4923    7.8174 C.ar    1  UNL1       -0.0612
     44 H          -4.1255   10.1711    7.3995 H       1  UNL1        0.0618
     45 C          -2.0795   10.6425    6.9990 C.ar    1  UNL1       -0.0537
     46 H          -2.1564   10.4378    5.9378 H       1  UNL1        0.0624
@<TRIPOS>BOND
     1    23    21    1
     2    22    21    1
     3    21    24    1
     4    21    15    1
     5    19    17    1
     6    20    17    1
     7    17    15    1
     8    17    18    1
     9    15    16    1
    10    15     3    1
    11     3     4    1
    12     4     1    1
    13     4     2    1
    14    46    45    1
    15     1    25    1
    16     1    36    1
    17    27    26    1
    18     2     5    1
    19    45    36   ar
    20    45    43   ar
    21    26    25   ar
    22    26    28   ar
    23    25    34   ar
    24    44    43    1
    25    36    37   ar
    26    29    28    1
    27    28    30   ar
    28    43    41   ar
    29     5     6    1
    30     5     7    1
    31     5    11    1
    32     8     7    1
    33    10     7    1
    34    34    35    1
    35    34    32   ar
    36    12    11    1
    37    14    11    1
    38     7     9    1
    39    11    13    1
    40    30    32   ar
    41    30    31    1
    42    32    33    1
    43    37    38    1
    44    37    39   ar
    45    41    39   ar
    46    41    42    1
    47    39    40    1
