@<TRIPOS>MOLECULE
3,4,5
 40 40 0 0 0
SMALL
GASTEIGER

@<TRIPOS>ATOM
      1 SI          3.0053    5.4133   16.8843 Si      1  UNL1        0.0000
      2 SI         -0.4390    9.6602   16.6150 Si      1  UNL1        0.0000
      3 N           2.0151    6.6447   16.1822 N.3     1  UNL1        0.0000
      4 N           0.6340    8.4185   16.0541 N.3     1  UNL1        0.0000
      5 C           1.2838    7.5505   16.8048 C.3     1  UNL1        0.0000
      6 C           1.2139    7.6108   18.2807 C.ar    1  UNL1        0.0000
      7 C           2.2271    8.2452   18.9888 C.ar    1  UNL1        0.0000
      8 H           3.0590    8.6741   18.4496 H       1  UNL1        0.0000
      9 C           2.1639    8.3274   20.3681 C.ar    1  UNL1        0.0000
     10 H           2.9513    8.8257   20.9149 H       1  UNL1        0.0000
     11 C           1.0930    7.7717   21.0487 C.ar    1  UNL1        0.0000
     12 H           1.0445    7.8360   22.1259 H       1  UNL1        0.0000
     13 C           0.0864    7.1308   20.3460 C.ar    1  UNL1        0.0000
     14 H          -0.7461    6.6916   20.8764 H       1  UNL1        0.0000
     15 C           0.1443    7.0506   18.9659 C.ar    1  UNL1        0.0000
     16 H          -0.6333    6.5471   18.4116 H       1  UNL1        0.0000
     17 C           4.8212    6.0239   16.8098 C.3     1  UNL1        0.0000
     18 H           5.0260    6.5136   15.8612 H       1  UNL1        0.0000
     19 H           5.5196    5.2016   16.9294 H       1  UNL1        0.0000
     20 H           5.0267    6.7408   17.5990 H       1  UNL1        0.0000
     21 C           2.6595    4.8276   18.6706 C.3     1  UNL1        0.0000
     22 H           2.9175    5.5807   19.4072 H       1  UNL1        0.0000
     23 H           3.2403    3.9371   18.8912 H       1  UNL1        0.0000
     24 H           1.6121    4.5802   18.8115 H       1  UNL1        0.0000
     25 C           2.7774    3.8742   15.7624 C.3     1  UNL1        0.0000
     26 H           2.2385    3.0879   16.2814 H       1  UNL1        0.0000
     27 H           3.7346    3.4608   15.4597 H       1  UNL1        0.0000
     28 H           2.2187    4.1169   14.8630 H       1  UNL1        0.0000
     29 C           0.2537   10.7801   18.0023 C.3     1  UNL1        0.0000
     30 H           0.2244   10.2854   18.9678 H       1  UNL1        0.0000
     31 H          -0.3276   11.6931   18.0813 H       1  UNL1        0.0000
     32 H           1.2843   11.0629   17.8105 H       1  UNL1        0.0000
     33 C          -2.1199    8.9566   17.2051 C.3     1  UNL1        0.0000
     34 H          -2.4111    8.0812   16.6326 H       1  UNL1        0.0000
     35 H          -2.9064    9.6963   17.0969 H       1  UNL1        0.0000
     36 H          -2.0823    8.6700   18.2513 H       1  UNL1        0.0000
     37 C          -0.7252   10.7408   15.0652 C.3     1  UNL1        0.0000
     38 H           0.1292   11.3798   14.8632 H       1  UNL1        0.0000
     39 H          -1.5850   11.3879   15.2048 H       1  UNL1        0.0000
     40 H          -0.9084   10.1336   14.1818 H       1  UNL1        0.0000
@<TRIPOS>BOND
     1    40    37    1
     2    28    25    1
     3    38    37    1
     4    37    39    1
     5    37     2    1
     6    27    25    1
     7    25    26    1
     8    25     1    1
     9    18    17    1
    10     4     2    1
    11     4     5    1
    12     3     5    1
    13     3     1    1
    14     2    33    1
    15     2    29    1
    16    34    33    1
    17     5     6    1
    18    17     1    1
    19    17    19    1
    20    17    20    1
    21     1    21    1
    22    35    33    1
    23    33    36    1
    24    32    29    1
    25    29    31    1
    26    29    30    1
    27     6    15   ar
    28     6     7   ar
    29    16    15    1
    30     8     7    1
    31    21    24    1
    32    21    23    1
    33    21    22    1
    34    15    13   ar
    35     7     9   ar
    36    13    14    1
    37    13    11   ar
    38     9    10    1
    39     9    11   ar
    40    11    12    1
