@<TRIPOS>MOLECULE
3,4,5
 40 40 0 0 0
SMALL
GASTEIGER

@<TRIPOS>ATOM
      1 SI         12.4936    3.4871    3.9247 Si      1  UNL1        0.0000
      2 SI          9.2113    7.8842    3.7325 Si      1  UNL1        0.0000
      3 N          11.4201    4.7270    4.4791 N.3     1  UNL1        0.0000
      4 N          10.0730    6.5368    4.3714 N.3     1  UNL1        0.0000
      5 C          10.8733    5.6854    3.7606 C.3     1  UNL1        0.0000
      6 C          11.1503    5.7974    2.3102 C.ar    1  UNL1        0.0000
      7 C          12.2156    6.5643    1.8573 C.ar    1  UNL1        0.0000
      8 H          12.8303    7.0895    2.5734 H       1  UNL1        0.0000
      9 C          12.4818    6.6525    0.5024 C.ar    1  UNL1        0.0000
     10 H          13.3126    7.2496    0.1546 H       1  UNL1        0.0000
     11 C          11.6861    5.9776   -0.4081 C.ar    1  UNL1        0.0000
     12 H          11.8955    6.0464   -1.4655 H       1  UNL1        0.0000
     13 C          10.6192    5.2168    0.0399 C.ar    1  UNL1        0.0000
     14 H           9.9946    4.6924   -0.6690 H       1  UNL1        0.0000
     15 C          10.3505    5.1269    1.3942 C.ar    1  UNL1        0.0000
     16 H           9.5182    4.5385    1.7514 H       1  UNL1        0.0000
     17 C          12.8957    2.5143    5.5277 C.3     1  UNL1        0.0000
     18 H          12.3125    2.8784    6.3750 H       1  UNL1        0.0000
     19 H          13.9462    2.5999    5.7865 H       1  UNL1        0.0000
     20 H          12.6839    1.4568    5.4075 H       1  UNL1        0.0000
     21 C          11.7028    2.2932    2.6544 C.3     1  UNL1        0.0000
     22 H          12.2875    1.3837    2.5611 H       1  UNL1        0.0000
     23 H          11.6426    2.7490    1.6712 H       1  UNL1        0.0000
     24 H          10.6967    2.0102    2.9486 H       1  UNL1        0.0000
     25 C          14.1309    4.1350    3.1751 C.3     1  UNL1        0.0000
     26 H          13.9806    4.5197    2.1715 H       1  UNL1        0.0000
     27 H          14.8698    3.3422    3.1178 H       1  UNL1        0.0000
     28 H          14.5522    4.9357    3.7753 H       1  UNL1        0.0000
     29 C           7.3584    7.5330    4.0838 C.3     1  UNL1        0.0000
     30 H           6.9588    6.8232    3.3660 H       1  UNL1        0.0000
     31 H           6.7596    8.4354    4.0088 H       1  UNL1        0.0000
     32 H           7.2129    7.1103    5.0743 H       1  UNL1        0.0000
     33 C           9.3344    8.3674    1.8885 C.3     1  UNL1        0.0000
     34 H           8.7161    9.2354    1.6806 H       1  UNL1        0.0000
     35 H           9.0030    7.5634    1.2400 H       1  UNL1        0.0000
     36 H          10.3526    8.6123    1.6052 H       1  UNL1        0.0000
     37 C           9.8090    9.4047    4.7379 C.3     1  UNL1        0.0000
     38 H           9.9000    9.1739    5.7961 H       1  UNL1        0.0000
     39 H           9.1308   10.2455    4.6305 H       1  UNL1        0.0000
     40 H          10.7840    9.7348    4.3928 H       1  UNL1        0.0000
@<TRIPOS>BOND
     1    12    11    1
     2    14    13    1
     3    11    13   ar
     4    11     9   ar
     5    13    15   ar
     6    10     9    1
     7     9     7   ar
     8    35    33    1
     9    15    16    1
    10    15     6   ar
    11    36    33    1
    12    23    21    1
    13    34    33    1
    14     7     6   ar
    15     7     8    1
    16    33     2    1
    17    26    25    1
    18     6     5    1
    19    22    21    1
    20    21    24    1
    21    21     1    1
    22    27    25    1
    23    25    28    1
    24    25     1    1
    25    30    29    1
    26     2    29    1
    27     2     4    1
    28     2    37    1
    29     5     4    1
    30     5     3    1
    31     1     3    1
    32     1    17    1
    33    31    29    1
    34    29    32    1
    35    40    37    1
    36    39    37    1
    37    37    38    1
    38    20    17    1
    39    17    19    1
    40    17    18    1
