@<TRIPOS>MOLECULE
5,6,7
 76 79 0 0 0
SMALL
GASTEIGER

@<TRIPOS>ATOM
      1 P           3.5453    4.1278    0.5198 P.3     1  UNL1        0.0000
      2 P           1.4770    4.3832    2.7507 P.3     1  UNL1        0.0000
      3 SI          5.8394    2.3987    0.0486 Si      1  UNL1        0.0000
      4 SI          0.5664    2.1013    4.2686 Si      1  UNL1        0.0000
      5 N           4.6001    3.0644    1.0896 N.3     1  UNL1        0.0000
      6 N           1.7795    2.9134    3.2852 N.3     1  UNL1        0.0000
      7 C           2.8609    5.0351    1.8716 C.3     1  UNL1        0.0000
      8 H           2.6184    6.0572    1.5496 H       1  UNL1        0.0000
      9 C           2.3384    3.3548   -0.6048 C.ar    1  UNL1        0.0000
     10 C           2.3268    1.9773   -0.7751 C.ar    1  UNL1        0.0000
     11 H           3.0509    1.3794   -0.2396 H       1  UNL1        0.0000
     12 C           1.4018    1.3949   -1.6232 C.ar    1  UNL1        0.0000
     13 H           1.3930    0.3228   -1.7560 H       1  UNL1        0.0000
     14 C           0.4930    2.1873   -2.3060 C.ar    1  UNL1        0.0000
     15 H          -0.2202    1.7339   -2.9788 H       1  UNL1        0.0000
     16 C           0.4909    3.5619   -2.1233 C.ar    1  UNL1        0.0000
     17 H          -0.2269    4.1769   -2.6465 H       1  UNL1        0.0000
     18 C           1.4026    4.1455   -1.2646 C.ar    1  UNL1        0.0000
     19 H           1.3967    5.2156   -1.1000 H       1  UNL1        0.0000
     20 C           4.3279    5.4281   -0.4814 C.ar    1  UNL1        0.0000
     21 C           4.1914    5.6026   -1.8518 C.ar    1  UNL1        0.0000
     22 H           3.5399    4.9558   -2.4219 H       1  UNL1        0.0000
     23 C           4.8934    6.6116   -2.4891 C.ar    1  UNL1        0.0000
     24 H           4.7844    6.7475   -3.5555 H       1  UNL1        0.0000
     25 C           5.7355    7.4421   -1.7678 C.ar    1  UNL1        0.0000
     26 H           6.2820    8.2251   -2.2727 H       1  UNL1        0.0000
     27 C           5.8756    7.2678   -0.4000 C.ar    1  UNL1        0.0000
     28 H           6.5298    7.9137    0.1665 H       1  UNL1        0.0000
     29 C           5.1742    6.2635    0.2398 C.ar    1  UNL1        0.0000
     30 H           5.2634    6.1178    1.3089 H       1  UNL1        0.0000
     31 C           7.4992    3.2257    0.5286 C.3     1  UNL1        0.0000
     32 H           7.5028    4.2835    0.2777 H       1  UNL1        0.0000
     33 H           8.3213    2.7607   -0.0058 H       1  UNL1        0.0000
     34 H           7.7052    3.1330    1.5915 H       1  UNL1        0.0000
     35 C           5.9367    0.5085    0.3180 C.3     1  UNL1        0.0000
     36 H           5.5253    0.2063    1.2754 H       1  UNL1        0.0000
     37 H           6.9695    0.1793    0.2775 H       1  UNL1        0.0000
     38 H           5.3994   -0.0307   -0.4567 H       1  UNL1        0.0000
     39 C           5.6276    2.6647   -1.8328 C.3     1  UNL1        0.0000
     40 H           4.5978    2.5340   -2.1505 H       1  UNL1        0.0000
     41 H           6.2338    1.9499   -2.3807 H       1  UNL1        0.0000
     42 H           5.9442    3.6584   -2.1327 H       1  UNL1        0.0000
     43 C          -0.1117    4.3981    1.8432 C.ar    1  UNL1        0.0000
     44 C          -0.3611    3.2510    1.0977 C.ar    1  UNL1        0.0000
     45 H           0.3627    2.4492    1.1287 H       1  UNL1        0.0000
     46 C          -1.5206    3.1325    0.3566 C.ar    1  UNL1        0.0000
     47 H          -1.7090    2.2313   -0.2084 H       1  UNL1        0.0000
     48 C          -2.4386    4.1698    0.3423 C.ar    1  UNL1        0.0000
     49 H          -3.3465    4.0834   -0.2362 H       1  UNL1        0.0000
     50 C          -2.1955    5.3152    1.0817 C.ar    1  UNL1        0.0000
     51 H          -2.9152    6.1212    1.0812 H       1  UNL1        0.0000
     52 C          -1.0389    5.4329    1.8326 C.ar    1  UNL1        0.0000
     53 H          -0.8797    6.3184    2.4287 H       1  UNL1        0.0000
     54 C           1.3869    5.6380    4.0779 C.ar    1  UNL1        0.0000
     55 C           1.7321    5.2256    5.3603 C.ar    1  UNL1        0.0000
     56 H           1.9982    4.1878    5.5343 H       1  UNL1        0.0000
     57 C           1.7326    6.1290    6.4080 C.ar    1  UNL1        0.0000
     58 H           1.9740    5.7932    7.4054 H       1  UNL1        0.0000
     59 C           1.4346    7.4611    6.1743 C.ar    1  UNL1        0.0000
     60 H           1.4336    8.1680    6.9911 H       1  UNL1        0.0000
     61 C           1.1586    7.8917    4.8871 C.ar    1  UNL1        0.0000
     62 H           0.9599    8.9366    4.6958 H       1  UNL1        0.0000
     63 C           1.1387    6.9871    3.8411 C.ar    1  UNL1        0.0000
     64 H           0.9459    7.3396    2.8370 H       1  UNL1        0.0000
     65 C           1.4706    1.3828    5.7842 C.3     1  UNL1        0.0000
     66 H           2.4778    1.0648    5.5167 H       1  UNL1        0.0000
     67 H           0.9393    0.5197    6.1695 H       1  UNL1        0.0000
     68 H           1.5516    2.0985    6.5978 H       1  UNL1        0.0000
     69 C          -0.2784    0.6951    3.2845 C.3     1  UNL1        0.0000
     70 H          -1.0724    1.0633    2.6423 H       1  UNL1        0.0000
     71 H          -0.7215   -0.0085    3.9813 H       1  UNL1        0.0000
     72 H           0.4284    0.1487    2.6712 H       1  UNL1        0.0000
     73 C          -0.8364    3.2511    4.8966 C.3     1  UNL1        0.0000
     74 H          -0.6350    3.6374    5.8913 H       1  UNL1        0.0000
     75 H          -1.7825    2.7210    4.9366 H       1  UNL1        0.0000
     76 H          -0.9668    4.1046    4.2369 H       1  UNL1        0.0000
@<TRIPOS>BOND
     1    24    23    1
     2    15    14    1
     3    17    16    1
     4    23    21   ar
     5    23    25   ar
     6    22    21    1
     7    41    39    1
     8    14    16   ar
     9    14    12   ar
    10    26    25    1
    11    40    39    1
    12    42    39    1
    13    16    18   ar
    14    21    20   ar
    15    39     3    1
    16    25    27   ar
    17    13    12    1
    18    12    10   ar
    19    18    19    1
    20    18     9   ar
    21    10     9   ar
    22    10    11    1
    23     9     1    1
    24    20    29   ar
    25    20     1    1
    26    38    35    1
    27    27    28    1
    28    27    29   ar
    29    49    48    1
    30    47    46    1
    31    33    31    1
    32     3    35    1
    33     3    31    1
    34     3     5    1
    35    29    30    1
    36    37    35    1
    37    32    31    1
    38    35    36    1
    39    48    46   ar
    40    48    50   ar
    41    46    44   ar
    42     1     5    1
    43     1     7    1
    44    31    34    1
    45    51    50    1
    46    50    52   ar
    47    44    45    1
    48    44    43   ar
    49     8     7    1
    50    52    43   ar
    51    52    53    1
    52    43     2    1
    53     7     2    1
    54    70    69    1
    55    72    69    1
    56     2     6    1
    57     2    54    1
    58    64    63    1
    59    69    71    1
    60    69     4    1
    61     6     4    1
    62    63    54   ar
    63    63    61   ar
    64    54    55   ar
    65    76    73    1
    66     4    73    1
    67     4    65    1
    68    62    61    1
    69    61    59   ar
    70    73    75    1
    71    73    74    1
    72    55    56    1
    73    55    57   ar
    74    66    65    1
    75    65    67    1
    76    65    68    1
    77    59    57   ar
    78    59    60    1
    79    57    58    1
