@<TRIPOS>MOLECULE
5,6,7
 75 78 0 0 0
SMALL
GASTEIGER

@<TRIPOS>ATOM
      1 P           5.2944    1.1303    5.3204 P.3     1  UNL1        0.0000
      2 P           5.7141    4.0611    5.8167 P.3     1  UNL1        0.0000
      3 SI          4.0211   -0.9664    3.5637 Si      1  UNL1        0.0000
      4 SI          6.1460    6.5743    4.3705 Si      1  UNL1        0.0000
      5 N           4.4543    0.6430    4.0223 N.3     1  UNL1        0.0000
      6 N           5.3372    5.0533    4.5960 N.3     1  UNL1        0.0000
      7 C           4.6632    2.6905    5.7162 C.3     1  UNL1        0.0000
      8 C           5.0570   -0.0046    6.7275 C.ar    1  UNL1        0.0000
      9 C           4.2266    0.3868    7.7679 C.ar    1  UNL1        0.0000
     10 H           3.7868    1.3747    7.7296 H       1  UNL1        0.0000
     11 C           3.9889   -0.4694    8.8283 C.ar    1  UNL1        0.0000
     12 H           3.3403   -0.1628    9.6367 H       1  UNL1        0.0000
     13 C           4.5862   -1.7189    8.8559 C.ar    1  UNL1        0.0000
     14 H           4.4045   -2.3883    9.6845 H       1  UNL1        0.0000
     15 C           5.4212   -2.1117    7.8205 C.ar    1  UNL1        0.0000
     16 H           5.8884   -3.0861    7.8442 H       1  UNL1        0.0000
     17 C           5.6554   -1.2591    6.7580 C.ar    1  UNL1        0.0000
     18 H           6.3004   -1.5577    5.9438 H       1  UNL1        0.0000
     19 C           7.0767    0.8804    4.9971 C.ar    1  UNL1        0.0000
     20 C           8.0119    0.6932    6.0082 C.ar    1  UNL1        0.0000
     21 H           7.6917    0.7000    7.0415 H       1  UNL1        0.0000
     22 C           9.3402    0.4894    5.6848 C.ar    1  UNL1        0.0000
     23 H          10.0673    0.3379    6.4697 H       1  UNL1        0.0000
     24 C           9.7411    0.4712    4.3580 C.ar    1  UNL1        0.0000
     25 H          10.7783    0.2963    4.1117 H       1  UNL1        0.0000
     26 C           8.8148    0.6837    3.3493 C.ar    1  UNL1        0.0000
     27 H           9.1271    0.6803    2.3143 H       1  UNL1        0.0000
     28 C           7.4878    0.8990    3.6706 C.ar    1  UNL1        0.0000
     29 H           6.7405    1.0732    2.9024 H       1  UNL1        0.0000
     30 C           2.8622   -1.8846    4.7817 C.3     1  UNL1        0.0000
     31 H           3.2569   -1.9087    5.7919 H       1  UNL1        0.0000
     32 H           2.7163   -2.9113    4.4589 H       1  UNL1        0.0000
     33 H           1.8879   -1.4080    4.8206 H       1  UNL1        0.0000
     34 C           5.5062   -2.1347    3.2038 C.3     1  UNL1        0.0000
     35 H           6.4444   -1.5928    3.1240 H       1  UNL1        0.0000
     36 H           5.3590   -2.6767    2.2748 H       1  UNL1        0.0000
     37 H           5.6196   -2.8727    3.9919 H       1  UNL1        0.0000
     38 C           3.0033   -0.7129    1.9605 C.3     1  UNL1        0.0000
     39 H           2.7349    0.3360    1.8464 H       1  UNL1        0.0000
     40 H           2.0899   -1.2966    2.0000 H       1  UNL1        0.0000
     41 H           3.5410   -1.0284    1.0738 H       1  UNL1        0.0000
     42 C           7.5307    3.8881    5.8952 C.ar    1  UNL1        0.0000
     43 C           8.1317    3.7384    4.6504 C.ar    1  UNL1        0.0000
     44 H           7.4881    3.7140    3.7754 H       1  UNL1        0.0000
     45 C           9.5040    3.6498    4.5359 C.ar    1  UNL1        0.0000
     46 H           9.9628    3.5473    3.5628 H       1  UNL1        0.0000
     47 C          10.2909    3.7007    5.6756 C.ar    1  UNL1        0.0000
     48 H          11.3662    3.6371    5.5937 H       1  UNL1        0.0000
     49 C           9.6978    3.8389    6.9189 C.ar    1  UNL1        0.0000
     50 H          10.3120    3.8827    7.8072 H       1  UNL1        0.0000
     51 C           8.3218    3.9339    7.0348 C.ar    1  UNL1        0.0000
     52 H           7.8708    4.0629    8.0082 H       1  UNL1        0.0000
     53 C           5.2929    4.7789    7.4411 C.ar    1  UNL1        0.0000
     54 C           5.4451    3.9750    8.5686 C.ar    1  UNL1        0.0000
     55 H           5.8423    2.9751    8.4477 H       1  UNL1        0.0000
     56 C           5.0735    4.4418    9.8141 C.ar    1  UNL1        0.0000
     57 H           5.2045    3.8185   10.6876 H       1  UNL1        0.0000
     58 C           4.5230    5.7087    9.9424 C.ar    1  UNL1        0.0000
     59 H           4.2336    6.0756   10.9169 H       1  UNL1        0.0000
     60 C           4.3264    6.4928    8.8187 C.ar    1  UNL1        0.0000
     61 H           3.8748    7.4707    8.9150 H       1  UNL1        0.0000
     62 C           4.7024    6.0261    7.5701 C.ar    1  UNL1        0.0000
     63 H           4.5345    6.6180    6.6829 H       1  UNL1        0.0000
     64 C           7.0917    7.3130    5.8641 C.3     1  UNL1        0.0000
     65 H           6.4996    8.0375    6.4142 H       1  UNL1        0.0000
     66 H           7.9967    7.8148    5.5345 H       1  UNL1        0.0000
     67 H           7.3848    6.5328    6.5605 H       1  UNL1        0.0000
     68 C           7.4792    6.4651    2.9899 C.3     1  UNL1        0.0000
     69 H           8.4528    6.2245    3.4071 H       1  UNL1        0.0000
     70 H           7.5706    7.4209    2.4834 H       1  UNL1        0.0000
     71 H           7.2522    5.7131    2.2410 H       1  UNL1        0.0000
     72 C           4.7938    7.8154    3.8273 C.3     1  UNL1        0.0000
     73 H           4.0606    7.3462    3.1799 H       1  UNL1        0.0000
     74 H           5.2380    8.6447    3.2881 H       1  UNL1        0.0000
     75 H           4.2555    8.2262    4.6759 H       1  UNL1        0.0000
@<TRIPOS>BOND
     1    41    38    1
     2    39    38    1
     3    38    40    1
     4    38     3    1
     5    71    68    1
     6    36    34    1
     7    27    26    1
     8    70    68    1
     9    29    28    1
    10    68    69    1
    11    68     4    1
    12    35    34    1
    13    73    72    1
    14    34     3    1
    15    34    37    1
    16    74    72    1
    17    26    28   ar
    18    26    24   ar
    19    46    45    1
    20     3     5    1
    21     3    30    1
    22    28    19   ar
    23    44    43    1
    24    72     4    1
    25    72    75    1
    26     5     1    1
    27    25    24    1
    28    24    22   ar
    29     4     6    1
    30     4    64    1
    31    32    30    1
    32    45    43   ar
    33    45    47   ar
    34     6     2    1
    35    43    42   ar
    36    30    33    1
    37    30    31    1
    38    19     1    1
    39    19    20   ar
    40     1     7    1
    41     1     8    1
    42    66    64    1
    43    48    47    1
    44    47    49   ar
    45    22    20   ar
    46    22    23    1
    47     7     2    1
    48     2    42    1
    49     2    53    1
    50    64    65    1
    51    64    67    1
    52    42    51   ar
    53    18    17    1
    54    20    21    1
    55    63    62    1
    56     8    17   ar
    57     8     9   ar
    58    17    15   ar
    59    49    51   ar
    60    49    50    1
    61    51    52    1
    62    53    62   ar
    63    53    54   ar
    64    62    60   ar
    65    10     9    1
    66     9    11   ar
    67    15    16    1
    68    15    13   ar
    69    55    54    1
    70    54    56   ar
    71    60    61    1
    72    60    58   ar
    73    11    13   ar
    74    11    12    1
    75    13    14    1
    76    56    58   ar
    77    56    57    1
    78    58    59    1
