@<TRIPOS>MOLECULE
5,6,7
 76 79 0 0 0
SMALL
GASTEIGER

@<TRIPOS>ATOM
      1 SI          3.1926   22.9476   17.8160 Si      1  UNL1        0.0000
      2 SI          3.8957   16.8986   14.3685 Si      1  UNL1        0.0000
      3 P           3.7973   22.2438   15.0289 P.3     1  UNL1        0.0000
      4 P           3.7925   19.6607   13.3478 P.3     1  UNL1        0.0000
      5 N           3.1746   21.8502   16.4560 N.3     1  UNL1        0.0000
      6 N           3.4239   18.5831   14.4627 N.3     1  UNL1        0.0000
      7 C           3.0734   21.2290   13.7713 C.3     1  UNL1        0.0000
      8 H           3.0723   21.8317   12.8532 H       1  UNL1        0.0000
      9 C           3.0835   19.3779   11.6808 C.ar    1  UNL1        0.0000
     10 C           2.3478   18.2244   11.4415 C.ar    1  UNL1        0.0000
     11 H           2.2382   17.5007   12.2333 H       1  UNL1        0.0000
     12 C           1.7568   18.0076   10.2099 C.ar    1  UNL1        0.0000
     13 H           1.1852   17.1071   10.0410 H       1  UNL1        0.0000
     14 C           1.8872   18.9499    9.2030 C.ar    1  UNL1        0.0000
     15 H           1.4225   18.7867    8.2419 H       1  UNL1        0.0000
     16 C           2.6076   20.1092    9.4350 C.ar    1  UNL1        0.0000
     17 H           2.7036   20.8524    8.6562 H       1  UNL1        0.0000
     18 C           3.1996   20.3253   10.6671 C.ar    1  UNL1        0.0000
     19 H           3.7467   21.2440   10.8364 H       1  UNL1        0.0000
     20 C           5.6049   19.6432   13.0697 C.ar    1  UNL1        0.0000
     21 C           6.2323   19.8708   11.8524 C.ar    1  UNL1        0.0000
     22 H           5.6503   20.0648   10.9642 H       1  UNL1        0.0000
     23 C           7.6126   19.8166   11.7649 C.ar    1  UNL1        0.0000
     24 H           8.0940   19.9871   10.8127 H       1  UNL1        0.0000
     25 C           8.3753   19.5329   12.8844 C.ar    1  UNL1        0.0000
     26 H           9.4513   19.4838   12.8077 H       1  UNL1        0.0000
     27 C           7.7537   19.3007   14.1008 C.ar    1  UNL1        0.0000
     28 H           8.3431   19.0663   14.9750 H       1  UNL1        0.0000
     29 C           6.3775   19.3611   14.1907 C.ar    1  UNL1        0.0000
     30 H           5.8745   19.1646   15.1274 H       1  UNL1        0.0000
     31 C           3.3799   23.9407   14.5133 C.ar    1  UNL1        0.0000
     32 C           2.1497   24.1640   13.9052 C.ar    1  UNL1        0.0000
     33 H           1.4980   23.3282   13.6918 H       1  UNL1        0.0000
     34 C           1.7632   25.4464   13.5596 C.ar    1  UNL1        0.0000
     35 H           0.8100   25.6065   13.0763 H       1  UNL1        0.0000
     36 C           2.5972   26.5187   13.8320 C.ar    1  UNL1        0.0000
     37 H           2.2957   27.5212   13.5666 H       1  UNL1        0.0000
     38 C           3.8203   26.3032   14.4467 C.ar    1  UNL1        0.0000
     39 H           4.4721   27.1375   14.6615 H       1  UNL1        0.0000
     40 C           4.2107   25.0205   14.7873 C.ar    1  UNL1        0.0000
     41 H           5.1689   24.8546   15.2595 H       1  UNL1        0.0000
     42 C           5.6212   22.2656   15.0534 C.ar    1  UNL1        0.0000
     43 C           6.3151   21.7910   16.1560 C.ar    1  UNL1        0.0000
     44 H           5.7525   21.4225   17.0005 H       1  UNL1        0.0000
     45 C           7.6981   21.8157   16.1655 C.ar    1  UNL1        0.0000
     46 H           8.2390   21.4608   17.0309 H       1  UNL1        0.0000
     47 C           8.3897   22.2965   15.0665 C.ar    1  UNL1        0.0000
     48 H           9.4694   22.3198   15.0743 H       1  UNL1        0.0000
     49 C           7.6987   22.7457   13.9512 C.ar    1  UNL1        0.0000
     50 H           8.2400   23.1113   13.0909 H       1  UNL1        0.0000
     51 C           6.3180   22.7289   13.9419 C.ar    1  UNL1        0.0000
     52 H           5.7694   23.0851   13.0793 H       1  UNL1        0.0000
     53 C           5.0384   16.5031   12.8826 C.3     1  UNL1        0.0000
     54 H           4.7614   17.0730   12.0002 H       1  UNL1        0.0000
     55 H           4.9868   15.4496   12.6271 H       1  UNL1        0.0000
     56 H           6.0752   16.7341   13.1063 H       1  UNL1        0.0000
     57 C           2.2962   15.8530   14.2184 C.3     1  UNL1        0.0000
     58 H           2.1774   15.2266   15.0954 H       1  UNL1        0.0000
     59 H           2.3217   15.1979   13.3526 H       1  UNL1        0.0000
     60 H           1.4051   16.4728   14.1435 H       1  UNL1        0.0000
     61 C           4.8314   16.3906   15.9526 C.3     1  UNL1        0.0000
     62 H           5.8142   16.8455   16.0293 H       1  UNL1        0.0000
     63 H           4.9694   15.3147   15.9547 H       1  UNL1        0.0000
     64 H           4.2688   16.6484   16.8426 H       1  UNL1        0.0000
     65 C           1.9635   24.3937   17.5701 C.3     1  UNL1        0.0000
     66 H           2.2836   25.0839   16.7962 H       1  UNL1        0.0000
     67 H           1.8650   24.9582   18.4919 H       1  UNL1        0.0000
     68 H           0.9754   24.0320   17.3009 H       1  UNL1        0.0000
     69 C           4.8746   23.7305   18.2909 C.3     1  UNL1        0.0000
     70 H           5.5190   23.0228   18.8028 H       1  UNL1        0.0000
     71 H           4.7072   24.5629   18.9674 H       1  UNL1        0.0000
     72 H           5.4173   24.1093   17.4313 H       1  UNL1        0.0000
     73 C           2.5820   21.9297   19.3081 C.3     1  UNL1        0.0000
     74 H           1.7355   22.4195   19.7772 H       1  UNL1        0.0000
     75 H           3.3571   21.8315   20.0600 H       1  UNL1        0.0000
     76 H           2.2813   20.9259   19.0200 H       1  UNL1        0.0000
@<TRIPOS>BOND
     1    15    14    1
     2    17    16    1
     3    14    16   ar
     4    14    12   ar
     5    16    18   ar
     6    13    12    1
     7    12    10   ar
     8    18    19    1
     9    18     9   ar
    10    24    23    1
    11    22    21    1
    12    10     9   ar
    13    10    11    1
    14     9     4    1
    15    23    21   ar
    16    23    25   ar
    17    21    20   ar
    18    54    53    1
    19    55    53    1
    20    26    25    1
    21     8     7    1
    22    53    56    1
    23    53     2    1
    24    25    27   ar
    25    20     4    1
    26    20    29   ar
    27    35    34    1
    28    52    51    1
    29    50    49    1
    30     4     7    1
    31     4     6    1
    32    59    57    1
    33    34    36   ar
    34    34    32   ar
    35    37    36    1
    36    33    32    1
    37     7     3    1
    38    36    38   ar
    39    32    31   ar
    40    51    49   ar
    41    51    42   ar
    42    49    47   ar
    43    27    29   ar
    44    27    28    1
    45    60    57    1
    46    29    30    1
    47    57     2    1
    48    57    58    1
    49     2     6    1
    50     2    61    1
    51    38    39    1
    52    38    40   ar
    53    31    40   ar
    54    31     3    1
    55    40    41    1
    56     3    42    1
    57     3     5    1
    58    42    43   ar
    59    47    48    1
    60    47    45   ar
    61    61    63    1
    62    61    62    1
    63    61    64    1
    64    43    45   ar
    65    43    44    1
    66    45    46    1
    67     5     1    1
    68    66    65    1
    69    68    65    1
    70    72    69    1
    71    65     1    1
    72    65    67    1
    73     1    69    1
    74     1    73    1
    75    69    70    1
    76    69    71    1
    77    76    73    1
    78    73    74    1
    79    73    75    1
