@<TRIPOS>MOLECULE
3,4,7
 76 79 0 0 0
SMALL
GASTEIGER

@<TRIPOS>ATOM
      1 SI          0.6124    5.1068   18.6284 Si      1  UNL1        0.0000
      2 SI          0.3634    4.6988   12.9975 Si      1  UNL1        0.0000
      3 N           1.4178    6.0802   17.4108 N.3     1  UNL1        0.0000
      4 N           1.3156    5.4458   14.2670 N.3     1  UNL1        0.0000
      5 P           2.9951    6.0758   17.1769 P.3     1  UNL1        0.0000
      6 P           2.9005    5.5966   14.2629 P.3     1  UNL1        0.0000
      7 C           3.3274    6.7226   15.5616 C.3     1  UNL1        0.0000
      8 H           4.3788    7.0297   15.4802 H       1  UNL1        0.0000
      9 C           3.8532    7.2613   18.2603 C.ar    1  UNL1        0.0000
     10 C           3.0791    8.0115   19.1349 C.ar    1  UNL1        0.0000
     11 H           2.0108    7.8345   19.1690 H       1  UNL1        0.0000
     12 C           3.6707    8.9651   19.9439 C.ar    1  UNL1        0.0000
     13 H           3.0671    9.5433   20.6277 H       1  UNL1        0.0000
     14 C           5.0373    9.1762   19.8775 C.ar    1  UNL1        0.0000
     15 H           5.5008    9.9189   20.5096 H       1  UNL1        0.0000
     16 C           5.8119    8.4414   18.9941 C.ar    1  UNL1        0.0000
     17 H           6.8770    8.6142   18.9372 H       1  UNL1        0.0000
     18 C           5.2231    7.4920   18.1805 C.ar    1  UNL1        0.0000
     19 H           5.8257    6.9290   17.4799 H       1  UNL1        0.0000
     20 C           3.7068    4.4390   17.5313 C.ar    1  UNL1        0.0000
     21 C           4.8458    4.1938   18.2842 C.ar    1  UNL1        0.0000
     22 H           5.3869    5.0103   18.7396 H       1  UNL1        0.0000
     23 C           5.2696    2.8902   18.4762 C.ar    1  UNL1        0.0000
     24 H           6.1537    2.6970   19.0664 H       1  UNL1        0.0000
     25 C           4.5596    1.8348   17.9288 C.ar    1  UNL1        0.0000
     26 H           4.8904    0.8200   18.0924 H       1  UNL1        0.0000
     27 C           3.4200    2.0795   17.1790 C.ar    1  UNL1        0.0000
     28 H           2.8615    1.2560   16.7589 H       1  UNL1        0.0000
     29 C           3.0018    3.3792   16.9731 C.ar    1  UNL1        0.0000
     30 H           2.1141    3.6021   16.3940 H       1  UNL1        0.0000
     31 C           3.8555    4.0330   14.2739 C.ar    1  UNL1        0.0000
     32 C           5.2163    4.1090   14.5550 C.ar    1  UNL1        0.0000
     33 H           5.6657    5.0736   14.7533 H       1  UNL1        0.0000
     34 C           5.9891    2.9643   14.5799 C.ar    1  UNL1        0.0000
     35 H           7.0437    3.0295   14.8050 H       1  UNL1        0.0000
     36 C           5.4097    1.7341   14.3130 C.ar    1  UNL1        0.0000
     37 H           6.0141    0.8394   14.3282 H       1  UNL1        0.0000
     38 C           4.0567    1.6538   14.0292 C.ar    1  UNL1        0.0000
     39 H           3.6051    0.6952   13.8195 H       1  UNL1        0.0000
     40 C           3.2785    2.7975   14.0178 C.ar    1  UNL1        0.0000
     41 H           2.2197    2.7400   13.8189 H       1  UNL1        0.0000
     42 C           3.5395    6.4229   12.7629 C.ar    1  UNL1        0.0000
     43 C           4.4927    5.8992   11.8984 C.ar    1  UNL1        0.0000
     44 H           4.9549    4.9447   12.1097 H       1  UNL1        0.0000
     45 C           4.8534    6.6023   10.7620 C.ar    1  UNL1        0.0000
     46 H           5.5950    6.1907   10.0927 H       1  UNL1        0.0000
     47 C           4.2656    7.8240   10.4795 C.ar    1  UNL1        0.0000
     48 H           4.5489    8.3662    9.5896 H       1  UNL1        0.0000
     49 C           3.3109    8.3496   11.3359 C.ar    1  UNL1        0.0000
     50 H           2.8479    9.3005   11.1191 H       1  UNL1        0.0000
     51 C           2.9505    7.6484   12.4712 C.ar    1  UNL1        0.0000
     52 H           2.1987    8.0456   13.1505 H       1  UNL1        0.0000
     53 C          -0.7484    6.2027   19.3824 C.3     1  UNL1        0.0000
     54 H          -0.3564    7.0693   19.9061 H       1  UNL1        0.0000
     55 H          -1.3302    5.6252   20.0920 H       1  UNL1        0.0000
     56 H          -1.4268    6.5546   18.6106 H       1  UNL1        0.0000
     57 C           1.8070    4.5737   20.0227 C.3     1  UNL1        0.0000
     58 H           2.2409    3.5979   19.8308 H       1  UNL1        0.0000
     59 H           1.2849    4.5194   20.9717 H       1  UNL1        0.0000
     60 H           2.6244    5.2816   20.1320 H       1  UNL1        0.0000
     61 C          -0.2391    3.5819   17.8476 C.3     1  UNL1        0.0000
     62 H          -0.5801    3.8091   16.8407 H       1  UNL1        0.0000
     63 H          -1.1148    3.3201   18.4323 H       1  UNL1        0.0000
     64 H           0.4012    2.7061   17.8063 H       1  UNL1        0.0000
     65 C          -0.8159    5.9874   12.2328 C.3     1  UNL1        0.0000
     66 H          -1.4514    6.4259   12.9975 H       1  UNL1        0.0000
     67 H          -1.4620    5.5095   11.5033 H       1  UNL1        0.0000
     68 H          -0.2808    6.7901   11.7287 H       1  UNL1        0.0000
     69 C           1.4240    4.0225   11.5514 C.3     1  UNL1        0.0000
     70 H           2.4851    4.0507   11.7773 H       1  UNL1        0.0000
     71 H           1.2682    4.6141   10.6548 H       1  UNL1        0.0000
     72 H           1.1614    2.9971   11.3137 H       1  UNL1        0.0000
     73 C          -0.6750    3.3110   13.8079 C.3     1  UNL1        0.0000
     74 H          -0.0870    2.5985   14.3801 H       1  UNL1        0.0000
     75 H          -1.2181    2.7591   13.0480 H       1  UNL1        0.0000
     76 H          -1.4067    3.7525   14.4783 H       1  UNL1        0.0000
@<TRIPOS>BOND
     1    48    47    1
     2    46    45    1
     3    47    45   ar
     4    47    49   ar
     5    71    69    1
     6    45    43   ar
     7    50    49    1
     8    72    69    1
     9    49    51   ar
    10    67    65    1
    11    69    70    1
    12    69     2    1
    13    68    65    1
    14    43    44    1
    15    43    42   ar
    16    65     2    1
    17    65    66    1
    18    51    42   ar
    19    51    52    1
    20    42     6    1
    21     2    73    1
    22     2     4    1
    23    75    73    1
    24    73    74    1
    25    73    76    1
    26    41    40    1
    27    39    38    1
    28    40    38   ar
    29    40    31   ar
    30    38    36   ar
    31     6     4    1
    32     6    31    1
    33     6     7    1
    34    31    32   ar
    35    36    37    1
    36    36    34   ar
    37    32    34   ar
    38    32    33    1
    39    34    35    1
    40     8     7    1
    41     7     5    1
    42    30    29    1
    43    28    27    1
    44    62    61    1
    45    29    27   ar
    46    29    20   ar
    47     5     3    1
    48     5    20    1
    49     5     9    1
    50    27    25   ar
    51     3     1    1
    52    19    18    1
    53    20    21   ar
    54    64    61    1
    55    61    63    1
    56    61     1    1
    57    25    26    1
    58    25    23   ar
    59    18     9   ar
    60    18    16   ar
    61     9    10   ar
    62    21    23   ar
    63    21    22    1
    64    23    24    1
    65    56    53    1
    66     1    53    1
    67     1    57    1
    68    17    16    1
    69    16    14   ar
    70    10    11    1
    71    10    12   ar
    72    53    54    1
    73    53    55    1
    74    58    57    1
    75    14    12   ar
    76    14    15    1
    77    12    13    1
    78    57    60    1
    79    57    59    1
