@<TRIPOS>MOLECULE
2,3,17
 60 60 0 0 0
SMALL
GASTEIGER

@<TRIPOS>ATOM
      1 O           3.8151    0.4575    6.0698 O.3     1  UNL1        0.0000
      2 N           6.0092    0.8215    4.2210 N.3     1  UNL1        0.0000
      3 N           6.0586    0.1999    7.3553 N.3     1  UNL1        0.0000
      4 N           7.6077    1.9670    7.8526 N.pl3   1  UNL1        0.0000
      5 SI          6.3384    0.5620    2.5465 Si      1  UNL1        0.0000
      6 SI          9.1426    2.5933    7.2077 Si      1  UNL1        0.0000
      7 C           3.8197    1.0306    7.3670 C.3     1  UNL1        0.0000
      8 C           4.8993    0.3317    8.2111 C.3     1  UNL1        0.0000
      9 C           3.7425    1.3824    5.0018 C.3     1  UNL1        0.0000
     10 C           5.1405    1.9030    4.6111 C.3     1  UNL1        0.0000
     11 C           7.7089    1.7553    1.9154 C.3     1  UNL1        0.0000
     12 C           4.7936    0.8705    1.4421 C.3     1  UNL1        0.0000
     13 C           6.8962   -1.2486    2.2752 C.3     1  UNL1        0.0000
     14 C           8.7941    3.0865    5.4021 C.3     1  UNL1        0.0000
     15 C           9.6268    4.0596    8.3227 C.3     1  UNL1        0.0000
     16 C          10.4453    1.2052    7.3157 C.3     1  UNL1        0.0000
     17 C           7.1177    0.9096    7.1700 C.3     1  UNL1        0.0000
     18 C           7.0291    2.4337    9.0695 C.ar    1  UNL1        0.0000
     19 C           6.2505    3.5906    9.0848 C.ar    1  UNL1        0.0000
     20 C           5.7134    4.0200   10.2930 C.ar    1  UNL1        0.0000
     21 C           5.9463    3.3227   11.4617 C.ar    1  UNL1        0.0000
     22 C           6.7244    2.1779   11.4365 C.ar    1  UNL1        0.0000
     23 C           7.2747    1.7208   10.2494 C.ar    1  UNL1        0.0000
     24 C           5.9797    4.3802    7.8381 C.3     1  UNL1        0.0000
     25 C           8.1139    0.4817   10.2137 C.3     1  UNL1        0.0000
     26 H           4.0479    2.1022    7.3152 H       1  UNL1        0.0000
     27 H           2.8275    0.9017    7.8236 H       1  UNL1        0.0000
     28 H           5.0836    0.9059    9.1273 H       1  UNL1        0.0000
     29 H           4.5627   -0.6778    8.4738 H       1  UNL1        0.0000
     30 H           3.0719    2.2159    5.2544 H       1  UNL1        0.0000
     31 H           3.3180    0.8304    4.1579 H       1  UNL1        0.0000
     32 H           5.5629    2.4389    5.4789 H       1  UNL1        0.0000
     33 H           5.0088    2.6394    3.8057 H       1  UNL1        0.0000
     34 H           7.8605    1.6478    0.8458 H       1  UNL1        0.0000
     35 H           8.6535    1.5443    2.4089 H       1  UNL1        0.0000
     36 H           7.4604    2.7960    2.1061 H       1  UNL1        0.0000
     37 H           5.0419    0.7479    0.3934 H       1  UNL1        0.0000
     38 H           4.4071    1.8775    1.5666 H       1  UNL1        0.0000
     39 H           3.9883    0.1781    1.6684 H       1  UNL1        0.0000
     40 H           7.7585   -1.2792    1.6172 H       1  UNL1        0.0000
     41 H           7.1809   -1.7196    3.2181 H       1  UNL1        0.0000
     42 H           6.1166   -1.8522    1.8208 H       1  UNL1        0.0000
     43 H           9.7172    3.1671    4.8384 H       1  UNL1        0.0000
     44 H           8.2777    4.0391    5.3134 H       1  UNL1        0.0000
     45 H           8.1848    2.3148    4.9243 H       1  UNL1        0.0000
     46 H          10.6366    4.3849    8.0980 H       1  UNL1        0.0000
     47 H           9.5933    3.7892    9.3738 H       1  UNL1        0.0000
     48 H           8.9726    4.9137    8.1868 H       1  UNL1        0.0000
     49 H          11.1849    1.3079    6.5281 H       1  UNL1        0.0000
     50 H          10.9793    1.1994    8.2623 H       1  UNL1        0.0000
     51 H           9.9632    0.2380    7.1881 H       1  UNL1        0.0000
     52 H           5.1072    4.9143   10.3087 H       1  UNL1        0.0000
     53 H           5.5234    3.6688   12.3927 H       1  UNL1        0.0000
     54 H           6.9087    1.6319   12.3500 H       1  UNL1        0.0000
     55 H           4.9201    4.6236    7.7659 H       1  UNL1        0.0000
     56 H           6.5311    5.3198    7.8621 H       1  UNL1        0.0000
     57 H           6.2833    3.8296    6.9513 H       1  UNL1        0.0000
     58 H           8.1674    0.0263   11.1992 H       1  UNL1        0.0000
     59 H           9.1228    0.7202    9.8798 H       1  UNL1        0.0000
     60 H           7.7010   -0.2480    9.5154 H       1  UNL1        0.0000
@<TRIPOS>BOND
     1    37    12    1
     2    34    11    1
     3    12    38    1
     4    12    39    1
     5    12     5    1
     6    40    13    1
     7    42    13    1
     8    11    36    1
     9    11    35    1
    10    11     5    1
    11    13     5    1
    12    13    41    1
    13     5     2    1
    14    33    10    1
    15    31     9    1
    16     2    10    1
    17    10     9    1
    18    10    32    1
    19    43    14    1
    20    45    14    1
    21     9    30    1
    22     9     1    1
    23    44    14    1
    24    14     6    1
    25     1     7    1
    26    49    16    1
    27    57    24    1
    28    17     3    1
    29    17     4    1
    30    51    16    1
    31     6    16    1
    32     6     4    1
    33     6    15    1
    34    26     7    1
    35    16    50    1
    36     3     8    1
    37     7    27    1
    38     7     8    1
    39    55    24    1
    40    24    56    1
    41    24    19    1
    42     4    18    1
    43    46    15    1
    44    48    15    1
    45     8    29    1
    46     8    28    1
    47    15    47    1
    48    18    19   ar
    49    18    23   ar
    50    19    20   ar
    51    60    25    1
    52    59    25    1
    53    25    23    1
    54    25    58    1
    55    23    22   ar
    56    20    52    1
    57    20    21   ar
    58    22    21   ar
    59    22    54    1
    60    21    53    1
