@<TRIPOS>MOLECULE
1,6,11
 44 44 0 0 0
SMALL
GASTEIGER

@<TRIPOS>ATOM
      1 N          12.4455   10.3002   11.8998 N.3     1  UNL1        0.0000
      2 SI         11.2525   10.4503   10.6238 Si      1  UNL1        0.0000
      3 C          11.8646    9.6547    8.9956 C.3     1  UNL1        0.0000
      4 C          11.0094   12.3207   10.3581 C.3     1  UNL1        0.0000
      5 C           9.5932    9.6756   11.1705 C.3     1  UNL1        0.0000
      6 N          13.5344    9.2747   13.5152 N.3     1  UNL1        0.0000
      7 SI         13.8496    7.9141   14.5835 Si      1  UNL1        0.0000
      8 C          14.7736    6.4857   13.7103 C.3     1  UNL1        0.0000
      9 C          12.1729    7.3230   15.2889 C.3     1  UNL1        0.0000
     10 C          14.9286    8.5971   15.9911 C.3     1  UNL1        0.0000
     11 C          12.9224    9.1628   12.3521 C.3     1  UNL1        0.0000
     12 C          12.7798    7.8821   11.6342 C.ar    1  UNL1        0.0000
     13 C          11.6697    7.0800   11.8518 C.ar    1  UNL1        0.0000
     14 C          11.5212    5.8762   11.1834 C.ar    1  UNL1        0.0000
     15 C          12.4928    5.4575   10.2801 C.ar    1  UNL1        0.0000
     16 C          13.6116    6.2655   10.0634 C.ar    1  UNL1        0.0000
     17 C          13.7529    7.4614   10.7320 C.ar    1  UNL1        0.0000
     18 O          12.4521    4.3000    9.5689 O.3     1  UNL1        0.0000
     19 C          11.3505    3.4400    9.7386 C.3     1  UNL1        0.0000
     20 H          12.8832    9.9400    8.7526 H       1  UNL1        0.0000
     21 H          11.8263    8.5713    9.0277 H       1  UNL1        0.0000
     22 H          11.2305    9.9818    8.1791 H       1  UNL1        0.0000
     23 H          10.9700   12.8402   11.3096 H       1  UNL1        0.0000
     24 H          11.7960   12.7676    9.7593 H       1  UNL1        0.0000
     25 H          10.0728   12.5043    9.8421 H       1  UNL1        0.0000
     26 H           9.4730    9.7825   12.2446 H       1  UNL1        0.0000
     27 H           8.7566   10.1772   10.6944 H       1  UNL1        0.0000
     28 H           9.5260    8.6206   10.9224 H       1  UNL1        0.0000
     29 H          14.1069    5.8573   13.1304 H       1  UNL1        0.0000
     30 H          15.5493    6.8426   13.0413 H       1  UNL1        0.0000
     31 H          15.2471    5.8595   14.4583 H       1  UNL1        0.0000
     32 H          11.7328    6.5197   14.7056 H       1  UNL1        0.0000
     33 H          12.2837    6.9640   16.3072 H       1  UNL1        0.0000
     34 H          11.4723    8.1542   15.3082 H       1  UNL1        0.0000
     35 H          15.9009    8.9268   15.6457 H       1  UNL1        0.0000
     36 H          14.4391    9.4416   16.4629 H       1  UNL1        0.0000
     37 H          15.0865    7.8368   16.7490 H       1  UNL1        0.0000
     38 H          10.9164    7.4021   12.5524 H       1  UNL1        0.0000
     39 H          10.6460    5.2760   11.3758 H       1  UNL1        0.0000
     40 H          14.3568    5.9271    9.3613 H       1  UNL1        0.0000
     41 H          14.6206    8.0772   10.5579 H       1  UNL1        0.0000
     42 H          11.5334    2.5951    9.0767 H       1  UNL1        0.0000
     43 H          11.2757    3.0811   10.7699 H       1  UNL1        0.0000
     44 H          10.4128    3.9266    9.4523 H       1  UNL1        0.0000
@<TRIPOS>BOND
     1    22     3    1
     2    20     3    1
     3     3    21    1
     4     3     2    1
     5    42    19    1
     6    40    16    1
     7    44    19    1
     8    18    19    1
     9    18    15    1
    10    19    43    1
    11    24     4    1
    12    25     4    1
    13    16    15   ar
    14    16    17   ar
    15    15    14   ar
    16     4     2    1
    17     4    23    1
    18    41    17    1
    19     2     5    1
    20     2     1    1
    21    27     5    1
    22    17    12   ar
    23    28     5    1
    24     5    26    1
    25    14    39    1
    26    14    13   ar
    27    12    13   ar
    28    12    11    1
    29    13    38    1
    30     1    11    1
    31    11     6    1
    32    30     8    1
    33    29     8    1
    34     6     7    1
    35     8    31    1
    36     8     7    1
    37     7     9    1
    38     7    10    1
    39    32     9    1
    40     9    34    1
    41     9    33    1
    42    35    10    1
    43    10    36    1
    44    10    37    1
