@<TRIPOS>MOLECULE
1,2,3
 38 40 0 0 0
SMALL
GASTEIGER

@<TRIPOS>ATOM
      1 N          -0.0811   15.6098    5.0562 N.pl3   1  UNL1       -0.2074
      2 N          -0.3470   14.0159    6.6199 N.pl3   1  UNL1       -0.2074
      3 C          -0.8832   15.0281    5.9448 C.3     1  UNL1        0.2506
      4 C          -2.1636   15.5856    6.2176 C.1     1  UNL1       -0.0433
      5 C          -3.1854   16.1977    6.4200 C.1     1  UNL1       -0.0623
      6 C          -4.4052   16.8657    6.6504 C.ar    1  UNL1        0.0251
      7 C          -5.2598   16.4505    7.6731 C.ar    1  UNL1       -0.0463
      8 H          -4.9767   15.6114    8.2920 H       1  UNL1        0.0630
      9 C          -6.4523   17.1153    7.8825 C.ar    1  UNL1       -0.0606
     10 H          -7.1136   16.7950    8.6744 H       1  UNL1        0.0618
     11 C          -6.8021   18.1912    7.0812 C.ar    1  UNL1       -0.0617
     12 H          -7.7353   18.7081    7.2498 H       1  UNL1        0.0618
     13 C          -5.9548   18.6059    6.0649 C.ar    1  UNL1       -0.0606
     14 H          -6.2290   19.4454    5.4428 H       1  UNL1        0.0618
     15 C          -4.7591   17.9506    5.8454 C.ar    1  UNL1       -0.0463
     16 H          -4.0891   18.2637    5.0573 H       1  UNL1        0.0630
     17 C          -0.5462   16.6855    4.2947 C.ar    1  UNL1        0.0514
     18 C          -1.6511   16.5687    3.4494 C.ar    1  UNL1       -0.0390
     19 H          -2.1785   15.6277    3.3943 H       1  UNL1        0.0637
     20 C          -2.0563   17.6423    2.6804 C.ar    1  UNL1       -0.0600
     21 H          -2.9124   17.5385    2.0290 H       1  UNL1        0.0618
     22 C          -1.3746   18.8469    2.7403 C.ar    1  UNL1       -0.0616
     23 H          -1.6966   19.6842    2.1391 H       1  UNL1        0.0618
     24 C          -0.2788   18.9714    3.5788 C.ar    1  UNL1       -0.0600
     25 H           0.2514   19.9116    3.6380 H       1  UNL1        0.0618
     26 C           0.1359   17.9023    4.3494 C.ar    1  UNL1       -0.0390
     27 H           0.9711   17.9992    5.0298 H       1  UNL1        0.0637
     28 C          -1.0133   13.2749    7.5830 C.ar    1  UNL1        0.0514
     29 C          -0.2341   12.7298    8.6110 C.ar    1  UNL1       -0.0390
     30 H           0.8284   12.9510    8.6235 H       1  UNL1        0.0637
     31 C          -0.8063   11.9401    9.5856 C.ar    1  UNL1       -0.0600
     32 H          -0.1912   11.5321   10.3751 H       1  UNL1        0.0618
     33 C          -2.1657   11.6665    9.5543 C.ar    1  UNL1       -0.0616
     34 H          -2.6134   11.0458   10.3160 H       1  UNL1        0.0618
     35 C          -2.9418   12.1846    8.5317 C.ar    1  UNL1       -0.0600
     36 H          -3.9985   11.9610    8.4909 H       1  UNL1        0.0618
     37 C          -2.3791   12.9783    7.5503 C.ar    1  UNL1       -0.0390
     38 H          -2.9920   13.3509    6.7427 H       1  UNL1        0.0637
@<TRIPOS>BOND
     1    21    20    1
     2    23    22    1
     3    20    22   ar
     4    20    18   ar
     5    22    24   ar
     6    19    18    1
     7    18    17   ar
     8    24    25    1
     9    24    26   ar
    10    17    26   ar
    11    17     1    1
    12    26    27    1
    13     1     3    1
    14    16    15    1
    15    14    13    1
    16    15    13   ar
    17    15     6   ar
    18     3     4    1
    19     3     2    1
    20    13    11   ar
    21     4     5    3
    22     5     6    1
    23     2    28    1
    24     6     7   ar
    25    38    37    1
    26    11    12    1
    27    11     9   ar
    28    37    28   ar
    29    37    35   ar
    30    28    29   ar
    31     7     9   ar
    32     7     8    1
    33     9    10    1
    34    36    35    1
    35    35    33   ar
    36    29    30    1
    37    29    31   ar
    38    33    31   ar
    39    33    34    1
    40    31    32    1
