@<TRIPOS>MOLECULE
1,2,3
 38 40 0 0 0
SMALL
GASTEIGER

@<TRIPOS>ATOM
      1 N           3.3664   13.6322    7.2310 N.pl3   1  UNL1       -0.2074
      2 N           2.5216   15.7171    7.3280 N.pl3   1  UNL1       -0.2074
      3 C           3.3561   14.8189    7.8371 C.3     1  UNL1        0.2506
      4 C           4.1071   15.0220    9.0301 C.1     1  UNL1       -0.0433
      5 C           4.7112   15.0940   10.0736 C.1     1  UNL1       -0.0623
      6 C           5.4467   15.2066   11.2710 C.ar    1  UNL1        0.0251
      7 C           6.2227   14.1311   11.7083 C.ar    1  UNL1       -0.0463
      8 H           6.2449   13.2236   11.1218 H       1  UNL1        0.0630
      9 C           6.9478   14.2402   12.8786 C.ar    1  UNL1       -0.0606
     10 H           7.5476   13.4084   13.2180 H       1  UNL1        0.0618
     11 C           6.9070   15.4120   13.6189 C.ar    1  UNL1       -0.0617
     12 H           7.4751   15.4919   14.5340 H       1  UNL1        0.0618
     13 C           6.1371   16.4809   13.1869 C.ar    1  UNL1       -0.0606
     14 H           6.1062   17.3924   13.7659 H       1  UNL1        0.0618
     15 C           5.4073   16.3850   12.0181 C.ar    1  UNL1       -0.0463
     16 H           4.8026   17.2111   11.6726 H       1  UNL1        0.0630
     17 C           4.2267   12.6286    7.6921 C.ar    1  UNL1        0.0514
     18 C           3.6992   11.3976    8.0773 C.ar    1  UNL1       -0.0390
     19 H           2.6322   11.2419    8.0063 H       1  UNL1        0.0637
     20 C           4.5311   10.4002    8.5464 C.ar    1  UNL1       -0.0600
     21 H           4.1104    9.4554    8.8591 H       1  UNL1        0.0618
     22 C           5.8995   10.6049    8.6231 C.ar    1  UNL1       -0.0616
     23 H           6.5474    9.8214    8.9880 H       1  UNL1        0.0618
     24 C           6.4327   11.8188    8.2232 C.ar    1  UNL1       -0.0600
     25 H           7.5000   11.9838    8.2717 H       1  UNL1        0.0618
     26 C           5.6062   12.8269    7.7656 C.ar    1  UNL1       -0.0390
     27 H           6.0266   13.7733    7.4527 H       1  UNL1        0.0637
     28 C           2.4543   17.0280    7.7652 C.ar    1  UNL1        0.0514
     29 C           3.5695   17.7692    8.1747 C.ar    1  UNL1       -0.0390
     30 H           4.5427   17.2994    8.2120 H       1  UNL1        0.0637
     31 C           3.4377   19.1009    8.5195 C.ar    1  UNL1       -0.0600
     32 H           4.3114   19.6575    8.8298 H       1  UNL1        0.0618
     33 C           2.2037   19.7266    8.4620 C.ar    1  UNL1       -0.0616
     34 H           2.1089   20.7686    8.7287 H       1  UNL1        0.0618
     35 C           1.0922   19.0027    8.0577 C.ar    1  UNL1       -0.0600
     36 H           0.1238   19.4801    8.0102 H       1  UNL1        0.0618
     37 C           1.2125   17.6726    7.7129 C.ar    1  UNL1       -0.0390
     38 H           0.3449   17.1040    7.4072 H       1  UNL1        0.0637
@<TRIPOS>BOND
     1     1    17    1
     2     1     3    1
     3     2    28    1
     4     2     3    1
     5    38    37    1
     6    27    26    1
     7    17    26   ar
     8    17    18   ar
     9    37    28   ar
    10    37    35   ar
    11    28    29   ar
    12    26    24   ar
    13     3     4    1
    14    19    18    1
    15    36    35    1
    16    35    33   ar
    17    18    20   ar
    18    29    30    1
    19    29    31   ar
    20    24    25    1
    21    24    22   ar
    22    33    31   ar
    23    33    34    1
    24    31    32    1
    25    20    22   ar
    26    20    21    1
    27    22    23    1
    28     4     5    3
    29     5     6    1
    30     8     7    1
    31     6     7   ar
    32     6    15   ar
    33    16    15    1
    34     7     9   ar
    35    15    13   ar
    36     9    10    1
    37     9    11   ar
    38    13    11   ar
    39    13    14    1
    40    11    12    1
