@<TRIPOS>MOLECULE
2,3,11
 77 80 0 0 0
SMALL
GASTEIGER

@<TRIPOS>ATOM
      1 P           8.2017    9.9476    5.6567 P.3     1  UNL1        0.0303
      2 N           6.7319   10.3781    5.2319 N.pl3   1  UNL1       -0.2223
      3 N           8.0203   12.9885    6.9455 N.pl3   1  UNL1       -0.2409
      4 C           9.3029   11.3021    5.8582 C.3     1  UNL1        0.0355
      5 H          10.3233   10.9396    5.7291 H       1  UNL1        0.0396
      6 C          10.4306   12.8125    7.4582 C.3     1  UNL1       -0.0392
      7 H          10.2149   13.5406    8.2367 H       1  UNL1        0.0252
      8 H          11.0934   13.2650    6.7207 H       1  UNL1        0.0252
      9 H          10.9530   11.9648    7.8990 H       1  UNL1        0.0252
     10 C           9.1616   12.3513    6.7715 C.3     1  UNL1        0.0832
     11 C           4.6534   11.8599    6.2964 C.3     1  UNL1       -0.0218
     12 H           5.1940   11.7282    7.2455 H       1  UNL1        0.0317
     13 H           3.7054   12.3639    6.5123 H       1  UNL1        0.0317
     14 C           8.2261    8.9197    7.1793 C.ar    1  UNL1       -0.0049
     15 C           5.4820    9.7380    5.2570 C.ar    1  UNL1        0.0585
     16 C           7.0434    8.5956    7.8332 C.ar    1  UNL1       -0.0527
     17 H           6.0969    8.8883    7.4018 H       1  UNL1        0.0624
     18 C           9.1603    8.9864    4.4150 C.ar    1  UNL1       -0.0049
     19 C           5.8924   11.5658   10.1022 C.3     1  UNL1       -0.0586
     20 H           5.8600   11.8914   11.1393 H       1  UNL1        0.0235
     21 H           5.7325   10.4896   10.0804 H       1  UNL1        0.0235
     22 H           5.0769   12.0473    9.5661 H       1  UNL1        0.0235
     23 C           7.2393   11.8985    9.4581 C.3     1  UNL1       -0.0197
     24 H           7.2759   11.4111    8.4757 H       1  UNL1        0.0344
     25 C           7.4269   13.3861    9.2564 C.ar    1  UNL1       -0.0220
     26 C           7.6736   16.9492    6.0321 C.3     1  UNL1       -0.0586
     27 H           6.6639   16.5647    5.9197 H       1  UNL1        0.0235
     28 H           8.0272   17.2917    5.0614 H       1  UNL1        0.0235
     29 H           7.6521   17.8035    6.7054 H       1  UNL1        0.0235
     30 C           8.0771   15.2712    7.8620 C.ar    1  UNL1       -0.0220
     31 C           8.5958   15.8500    6.5641 C.3     1  UNL1       -0.0197
     32 H           8.6303   15.0472    5.8170 H       1  UNL1        0.0344
     33 C           8.3814   11.3341   10.3067 C.3     1  UNL1       -0.0586
     34 H           8.4005   11.8094   11.2855 H       1  UNL1        0.0235
     35 H           9.3384   11.5083    9.8219 H       1  UNL1        0.0235
     36 H           8.2555   10.2617   10.4408 H       1  UNL1        0.0235
     37 C           5.2425    8.4569    4.7574 C.ar    1  UNL1       -0.0273
     38 C           7.0788    7.8897    9.0230 C.ar    1  UNL1       -0.0611
     39 H           6.1554    7.6311    9.5216 H       1  UNL1        0.0618
     40 C           4.3939   10.5356    5.7047 C.ar    1  UNL1       -0.0239
     41 C           8.2928    7.5139    9.5736 C.ar    1  UNL1       -0.0617
     42 H           8.3191    6.9621   10.5022 H       1  UNL1        0.0618
     43 C           3.9381    7.9777    4.6885 C.ar    1  UNL1       -0.0570
     44 H           3.7652    6.9784    4.3126 H       1  UNL1        0.0621
     45 C           7.8608   13.8909    8.0159 C.ar    1  UNL1        0.0553
     46 C           7.2050   14.2626   10.3071 C.ar    1  UNL1       -0.0565
     47 H           6.8829   13.8796   11.2639 H       1  UNL1        0.0621
     48 C           9.7117    7.7227    4.5636 C.ar    1  UNL1       -0.0527
     49 H           9.6111    7.1905    5.4997 H       1  UNL1        0.0624
     50 C           9.4765    7.8555    8.9373 C.ar    1  UNL1       -0.0611
     51 H          10.4246    7.5734    9.3726 H       1  UNL1        0.0618
     52 C          10.3948    7.1415    3.5085 C.ar    1  UNL1       -0.0611
     53 H          10.8280    6.1587    3.6277 H       1  UNL1        0.0618
     54 C          10.0098   16.4111    6.7450 C.3     1  UNL1       -0.0586
     55 H          10.0076   17.2363    7.4541 H       1  UNL1        0.0235
     56 H          10.3900   16.7789    5.7937 H       1  UNL1        0.0235
     57 H          10.6893   15.6486    7.1152 H       1  UNL1        0.0235
     58 C           9.4441    8.5622    7.7505 C.ar    1  UNL1       -0.0527
     59 H          10.3640    8.8423    7.2555 H       1  UNL1        0.0624
     60 C           9.2898    9.6540    3.2024 C.ar    1  UNL1       -0.0527
     61 H           8.8506   10.6421    3.1116 H       1  UNL1        0.0624
     62 C           2.8687    8.7628    5.0780 C.ar    1  UNL1       -0.0611
     63 H           1.8598    8.3809    5.0038 H       1  UNL1        0.0618
     64 C          10.5229    7.8118    2.3034 C.ar    1  UNL1       -0.0617
     65 H          11.0557    7.3510    1.4844 H       1  UNL1        0.0618
     66 C           9.9675    9.0725    2.1483 C.ar    1  UNL1       -0.0611
     67 H          10.0648    9.5982    1.2094 H       1  UNL1        0.0618
     68 C           3.1014   10.0298    5.5784 C.ar    1  UNL1       -0.0567
     69 H           2.2673   10.6411    5.9007 H       1  UNL1        0.0621
     70 C           6.3706    7.5921    4.2869 C.3     1  UNL1       -0.0379
     71 H           6.8999    8.0588    3.4543 H       1  UNL1        0.0278
     72 H           6.0008    6.6228    3.9584 H       1  UNL1        0.0278
     73 H           7.0885    7.4302    5.0928 H       1  UNL1        0.0278
     74 C           7.8417   16.1131    8.9394 C.ar    1  UNL1       -0.0565
     75 H           8.0180   17.1736    8.8348 H       1  UNL1        0.0621
     76 C           7.4052   15.6213   10.1544 C.ar    1  UNL1       -0.0611
     77 H           7.2348   16.2924   10.9837 H       1  UNL1        0.0618
@<TRIPOS>BOND
     1    67    66    1
     2    65    64    1
     3    66    64   ar
     4    66    60   ar
     5    64    52   ar
     6    61    60    1
     7    60    18   ar
     8    71    70    1
     9    52    53    1
    10    52    48   ar
    11    72    70    1
    12    70    37    1
    13    70    73    1
    14    44    43    1
    15    18    48   ar
    16    18     1    1
    17    48    49    1
    18    43    37   ar
    19    43    62   ar
    20    37    15   ar
    21    63    62    1
    22    28    26    1
    23    62    68   ar
    24     2    15    1
    25     2     1    1
    26    15    40   ar
    27    68    40   ar
    28    68    69    1
    29     1     4    1
    30     1    14    1
    31    40    11    1
    32     5     4    1
    33    56    54    1
    34    32    31    1
    35     4    10    1
    36    27    26    1
    37    26    31    1
    38    26    29    1
    39    11    13    1
    40    11    12    1
    41    31    54    1
    42    31    30    1
    43     8     6    1
    44    54    57    1
    45    54    55    1
    46    10     3    1
    47    10     6    1
    48     3    45    1
    49    14    58   ar
    50    14    16   ar
    51    59    58    1
    52    17    16    1
    53     6     9    1
    54     6     7    1
    55    58    50   ar
    56    16    38   ar
    57    30    45   ar
    58    30    74   ar
    59    45    25   ar
    60    24    23    1
    61    75    74    1
    62    50    51    1
    63    50    41   ar
    64    74    76   ar
    65    38    39    1
    66    38    41   ar
    67    25    23    1
    68    25    46   ar
    69    23    19    1
    70    23    33    1
    71    22    19    1
    72    41    42    1
    73    35    33    1
    74    21    19    1
    75    19    20    1
    76    76    46   ar
    77    76    77    1
    78    33    36    1
    79    33    34    1
    80    46    47    1
