@<TRIPOS>MOLECULE
3,4,5
 40 40 0 0 0
SMALL
GASTEIGER

@<TRIPOS>ATOM
      1 SI         -1.2621   -1.6108    2.4727 Si      1  UNL1        0.0000
      2 SI          3.8480   -3.5128    1.7808 Si      1  UNL1        0.0000
      3 N           0.4846   -1.7029    2.5005 N.3     1  UNL1        0.0000
      4 N           2.5570   -2.4311    2.1928 N.3     1  UNL1        0.0000
      5 C           1.2743   -2.5841    1.9231 C.3     1  UNL1        0.0000
      6 C           0.7648   -3.6563    1.0399 C.ar    1  UNL1        0.0000
      7 C           0.6260   -4.9488    1.5288 C.ar    1  UNL1        0.0000
      8 H           0.8841   -5.1583    2.5564 H       1  UNL1        0.0000
      9 C           0.1482   -5.9508    0.7036 C.ar    1  UNL1        0.0000
     10 H           0.0355   -6.9547    1.0865 H       1  UNL1        0.0000
     11 C          -0.1853   -5.6692   -0.6111 C.ar    1  UNL1        0.0000
     12 H          -0.5553   -6.4537   -1.2545 H       1  UNL1        0.0000
     13 C          -0.0467   -4.3810   -1.1000 C.ar    1  UNL1        0.0000
     14 H          -0.3075   -4.1596   -2.1246 H       1  UNL1        0.0000
     15 C           0.4233   -3.3739   -0.2759 C.ar    1  UNL1        0.0000
     16 H           0.5299   -2.3660   -0.6529 H       1  UNL1        0.0000
     17 C          -2.1431   -3.2585    2.0865 C.3     1  UNL1        0.0000
     18 H          -2.0276   -3.5659    1.0528 H       1  UNL1        0.0000
     19 H          -3.2048   -3.1350    2.2737 H       1  UNL1        0.0000
     20 H          -1.7911   -4.0703    2.7152 H       1  UNL1        0.0000
     21 C          -1.7664   -1.0888    4.2400 C.3     1  UNL1        0.0000
     22 H          -2.0522   -0.0424    4.2714 H       1  UNL1        0.0000
     23 H          -0.9476   -1.2197    4.9436 H       1  UNL1        0.0000
     24 H          -2.6106   -1.6714    4.5960 H       1  UNL1        0.0000
     25 C          -1.7673   -0.3127    1.1632 C.3     1  UNL1        0.0000
     26 H          -1.5192   -0.6300    0.1530 H       1  UNL1        0.0000
     27 H          -1.2814    0.6424    1.3449 H       1  UNL1        0.0000
     28 H          -2.8386   -0.1431    1.1977 H       1  UNL1        0.0000
     29 C           4.0063   -4.8372    3.1530 C.3     1  UNL1        0.0000
     30 H           3.2907   -5.6441    3.0242 H       1  UNL1        0.0000
     31 H           3.8413   -4.3993    4.1341 H       1  UNL1        0.0000
     32 H           4.9978   -5.2797    3.1465 H       1  UNL1        0.0000
     33 C           3.6783   -4.3537    0.0739 C.3     1  UNL1        0.0000
     34 H           3.3611   -3.6576   -0.6972 H       1  UNL1        0.0000
     35 H           2.9683   -5.1738    0.0853 H       1  UNL1        0.0000
     36 H           4.6404   -4.7571   -0.2262 H       1  UNL1        0.0000
     37 C           5.4386   -2.4674    1.7285 C.3     1  UNL1        0.0000
     38 H           5.4016   -1.7089    0.9516 H       1  UNL1        0.0000
     39 H           6.3023   -3.0967    1.5350 H       1  UNL1        0.0000
     40 H           5.5974   -1.9596    2.6731 H       1  UNL1        0.0000
@<TRIPOS>BOND
     1    14    13    1
     2    12    11    1
     3    13    11   ar
     4    13    15   ar
     5    34    33    1
     6    16    15    1
     7    11     9   ar
     8    15     6   ar
     9    36    33    1
    10    33    35    1
    11    33     2    1
    12    26    25    1
    13     9    10    1
    14     9     7   ar
    15    38    37    1
    16     6     7   ar
    17     6     5    1
    18    18    17    1
    19    25    28    1
    20    25    27    1
    21    25     1    1
    22     7     8    1
    23    39    37    1
    24    37     2    1
    25    37    40    1
    26     2     4    1
    27     2    29    1
    28     5     4    1
    29     5     3    1
    30    17    19    1
    31    17     1    1
    32    17    20    1
    33     1     3    1
    34     1    21    1
    35    30    29    1
    36    32    29    1
    37    29    31    1
    38    21    22    1
    39    21    24    1
    40    21    23    1
