@<TRIPOS>MOLECULE
1,2,4
 22 22 0 0 0
SMALL
GASTEIGER

@<TRIPOS>ATOM
      1 N          12.0954    9.2549   11.7960 N.pl3   1  UNL1       -0.2241
      2 N          13.2408    7.3921   11.8533 N.3     1  UNL1       -0.2276
      3 H          14.0508    6.8989   12.2253 H       1  UNL1        0.1431
      4 C           9.6766    9.5554   10.8676 C.ar    1  UNL1       -0.0083
      5 C           8.3296    9.7315   10.5265 C.ar    1  UNL1       -0.0534
      6 H           7.7628    8.9019   10.1169 H       1  UNL1        0.0624
      7 C           7.6521   10.9334   10.6890 C.ar    1  UNL1       -0.0611
      8 H           6.6112   11.0118   10.4019 H       1  UNL1        0.0618
      9 C           8.3012   12.0266   11.2327 C.ar    1  UNL1       -0.0611
     10 H           7.7743   12.9581   11.3857 H       1  UNL1        0.0618
     11 C           9.6344   11.9141   11.5795 C.ar    1  UNL1       -0.0522
     12 H          10.1414   12.7630   12.0169 H       1  UNL1        0.0624
     13 C          10.3148   10.7148   11.3835 C.ar    1  UNL1        0.0048
     14 C          12.6068   11.6370   11.7163 C.2     1  UNL1       -0.0753
     15 H          13.6653   11.5315   11.8676 H       1  UNL1        0.0554
     16 H          12.2547   12.6378   11.5457 H       1  UNL1        0.0554
     17 C          11.7632   10.5922   11.6906 C.2     1  UNL1        0.0507
     18 C          14.2580    9.2910   13.0847 C.3     1  UNL1       -0.0239
     19 H          14.7101    8.5420   13.7343 H       1  UNL1        0.0265
     20 H          13.8249   10.0805   13.6946 H       1  UNL1        0.0265
     21 H          15.0438    9.7195   12.4626 H       1  UNL1        0.0265
     22 C          13.2002    8.6482   12.2173 C.3     1  UNL1        0.1499
@<TRIPOS>BOND
     1     6     5    1
     2     8     7    1
     3     5     7   ar
     4     5     4   ar
     5     7     9   ar
     6     4    13   ar
     7     9    10    1
     8     9    11   ar
     9    13    11   ar
    10    13    17    1
    11    16    14    1
    12    11    12    1
    13    17    14    2
    14    17     1    1
    15    14    15    1
    16     1    22    1
    17     2    22    1
    18     2     3    1
    19    22    18    1
    20    21    18    1
    21    18    20    1
    22    18    19    1
