@<TRIPOS>MOLECULE
2,3,5
 45 45 0 0 0
SMALL
GASTEIGER

@<TRIPOS>ATOM
      1 SI          0.7191    5.1968    6.8346 Si      1  UNL1        0.0000
      2 N           1.1762    7.6793    3.6889 N.pl3   1  UNL1        0.0000
      3 N           3.1426    5.7180    3.6533 N.pl3   1  UNL1        0.0000
      4 C           1.0935    6.5895    4.5626 C.2     1  UNL1        0.0000
      5 C           2.0690    5.6165    4.5449 C.2     1  UNL1        0.0000
      6 C          -0.0415    6.3610    5.5467 C.3     1  UNL1        0.0000
      7 C           1.8609    4.4630    5.5117 C.3     1  UNL1        0.0000
      8 C           1.6942    6.1520    8.1672 C.3     1  UNL1        0.0000
      9 C          -0.4905    3.9656    7.6413 C.3     1  UNL1        0.0000
     10 C           0.1947    8.7651    3.7716 C.3     1  UNL1        0.0000
     11 C          -1.2790    8.2765    3.6987 C.3     1  UNL1        0.0000
     12 C           0.4231    9.6312    5.0318 C.3     1  UNL1        0.0000
     13 C           0.4041    9.7111    2.5700 C.3     1  UNL1        0.0000
     14 C           4.2318    4.7378    3.6994 C.3     1  UNL1        0.0000
     15 C           3.7451    3.2642    3.6092 C.3     1  UNL1        0.0000
     16 C           5.1191    4.9462    4.9482 C.3     1  UNL1        0.0000
     17 C           5.1564    4.9706    2.4856 C.3     1  UNL1        0.0000
     18 H          -0.4061    7.2833    5.9827 H       1  UNL1        0.0000
     19 H          -0.8905    5.8876    5.0464 H       1  UNL1        0.0000
     20 H           2.7917    4.0913    5.9230 H       1  UNL1        0.0000
     21 H           1.3789    3.6228    5.0046 H       1  UNL1        0.0000
     22 H           2.3808    6.8563    7.7075 H       1  UNL1        0.0000
     23 H           2.2744    5.4801    8.7924 H       1  UNL1        0.0000
     24 H           1.0302    6.7109    8.8198 H       1  UNL1        0.0000
     25 H          -1.2006    4.4832    8.2773 H       1  UNL1        0.0000
     26 H           0.0423    3.2525    8.2613 H       1  UNL1        0.0000
     27 H          -1.0544    3.4059    6.9024 H       1  UNL1        0.0000
     28 H          -1.7439    8.2285    4.6780 H       1  UNL1        0.0000
     29 H          -1.3205    7.2885    3.2465 H       1  UNL1        0.0000
     30 H          -1.8761    8.9532    3.0909 H       1  UNL1        0.0000
     31 H           0.2431    9.0824    5.9502 H       1  UNL1        0.0000
     32 H          -0.2349   10.4977    5.0120 H       1  UNL1        0.0000
     33 H           1.4572    9.9717    5.0513 H       1  UNL1        0.0000
     34 H           0.4579    9.1447    1.6366 H       1  UNL1        0.0000
     35 H           1.3080   10.2967    2.7046 H       1  UNL1        0.0000
     36 H          -0.4281   10.4112    2.5059 H       1  UNL1        0.0000
     37 H           2.7460    3.2288    3.1817 H       1  UNL1        0.0000
     38 H           3.7235    2.7795    4.5799 H       1  UNL1        0.0000
     39 H           4.4073    2.6814    2.9719 H       1  UNL1        0.0000
     40 H           5.9841    4.2873    4.9044 H       1  UNL1        0.0000
     41 H           4.5851    4.7536    5.8728 H       1  UNL1        0.0000
     42 H           5.4616    5.9794    4.9773 H       1  UNL1        0.0000
     43 H           5.7411    5.8743    2.6251 H       1  UNL1        0.0000
     44 H           4.5738    5.0377    1.5629 H       1  UNL1        0.0000
     45 H           5.8581    4.1421    2.3958 H       1  UNL1        0.0000
@<TRIPOS>BOND
     1    44    17    1
     2    34    13    1
     3    45    17    1
     4    17    43    1
     5    17    14    1
     6    36    13    1
     7    13    35    1
     8    13    10    1
     9    39    15    1
    10    30    11    1
    11    37    15    1
    12    29    11    1
    13    15    14    1
    14    15    38    1
    15     3    14    1
    16     3     5    1
    17     2    10    1
    18     2     4    1
    19    11    10    1
    20    11    28    1
    21    14    16    1
    22    10    12    1
    23     5     4    2
    24     5     7    1
    25     4     6    1
    26    40    16    1
    27    16    42    1
    28    16    41    1
    29    21     7    1
    30    32    12    1
    31    12    33    1
    32    12    31    1
    33    19     6    1
    34     7    20    1
    35     7     1    1
    36     6    18    1
    37     6     1    1
    38     1     9    1
    39     1     8    1
    40    27     9    1
    41     9    26    1
    42     9    25    1
    43    22     8    1
    44     8    23    1
    45     8    24    1
