@<TRIPOS>MOLECULE
3,5,72
 91 95 0 0 0
SMALL
GASTEIGER

@<TRIPOS>ATOM
      1 SI          2.9087    1.7863    0.8534 Si      1  UNL1        0.0000
      2 B           0.3397    6.0199    5.8510 B       1  UNL1        0.0000
      3 N           2.1063    2.6391    2.1164 N.3     1  UNL1        0.0000
      4 C           0.9204    3.1888    2.3340 C.3     1  UNL1        0.0000
      5 N           0.5630    3.0962    3.6501 N.pl3   1  UNL1        0.0000
      6 C          -0.5401    3.7119    4.0801 C.2     1  UNL1        0.0000
      7 C          -1.4082    4.3648    3.2245 C.2     1  UNL1        0.0000
      8 H          -2.3066    4.8272    3.6023 H       1  UNL1        0.0000
      9 C          -1.0912    4.4101    1.8646 C.2     1  UNL1        0.0000
     10 H          -1.7572    4.9112    1.1760 H       1  UNL1        0.0000
     11 C           0.0696    3.8406    1.4111 C.2     1  UNL1        0.0000
     12 H           0.3627    3.8856    0.3741 H       1  UNL1        0.0000
     13 C          -0.7551    3.6520    5.5473 C.ar    1  UNL1        0.0000
     14 C          -0.2717    4.6753    6.3822 C.ar    1  UNL1        0.0000
     15 C          -0.4430    4.5024    7.7624 C.ar    1  UNL1        0.0000
     16 H          -0.0680    5.2662    8.4290 H       1  UNL1        0.0000
     17 C          -1.0696    3.3919    8.2923 C.ar    1  UNL1        0.0000
     18 H          -1.1733    3.2881    9.3627 H       1  UNL1        0.0000
     19 C          -1.5835    2.4220    7.4468 C.ar    1  UNL1        0.0000
     20 H          -2.0996    1.5634    7.8504 H       1  UNL1        0.0000
     21 C          -1.4228    2.5564    6.0792 C.ar    1  UNL1        0.0000
     22 H          -1.8187    1.8062    5.4094 H       1  UNL1        0.0000
     23 C           1.0920    6.1475    4.4788 C.ar    1  UNL1        0.0000
     24 C           2.2471    5.4101    4.1782 C.ar    1  UNL1        0.0000
     25 C           2.8816    5.5558    2.9529 C.ar    1  UNL1        0.0000
     26 H           3.7795    4.9871    2.7557 H       1  UNL1        0.0000
     27 C           2.3872    6.4013    1.9746 C.ar    1  UNL1        0.0000
     28 C           1.2460    7.1315    2.2673 C.ar    1  UNL1        0.0000
     29 H           0.8422    7.8010    1.5198 H       1  UNL1        0.0000
     30 C           0.6123    7.0315    3.4946 C.ar    1  UNL1        0.0000
     31 C           2.8781    4.4711    5.1699 C.3     1  UNL1        0.0000
     32 H           3.8444    4.8669    5.4911 H       1  UNL1        0.0000
     33 H           3.0402    3.4839    4.6921 H       1  UNL1        0.0000
     34 H           2.2453    4.3452    6.0461 H       1  UNL1        0.0000
     35 C           3.0554    6.4998    0.6381 C.3     1  UNL1        0.0000
     36 H           2.6929    7.3612    0.0821 H       1  UNL1        0.0000
     37 H           2.8470    5.6006    0.0590 H       1  UNL1        0.0000
     38 H           4.1352    6.5819    0.7494 H       1  UNL1        0.0000
     39 C          -0.6161    7.8598    3.7322 C.3     1  UNL1        0.0000
     40 H          -0.5015    8.4701    4.6251 H       1  UNL1        0.0000
     41 H          -1.4853    7.2209    3.8730 H       1  UNL1        0.0000
     42 H          -0.8061    8.5138    2.8842 H       1  UNL1        0.0000
     43 C           0.1203    7.2784    6.7714 C.ar    1  UNL1        0.0000
     44 C          -1.1602    7.6637    7.1931 C.ar    1  UNL1        0.0000
     45 C          -1.3288    8.7520    8.0394 C.ar    1  UNL1        0.0000
     46 H          -2.3300    9.0292    8.3410 H       1  UNL1        0.0000
     47 C          -0.2498    9.4833    8.5033 C.ar    1  UNL1        0.0000
     48 C           1.0200    9.1027    8.0895 C.ar    1  UNL1        0.0000
     49 H           1.8762    9.6618    8.4422 H       1  UNL1        0.0000
     50 C           1.2146    8.0297    7.2373 C.ar    1  UNL1        0.0000
     51 C          -2.4023    6.9505    6.7353 C.3     1  UNL1        0.0000
     52 H          -2.8491    6.4096    7.5697 H       1  UNL1        0.0000
     53 H          -2.1907    6.2390    5.9444 H       1  UNL1        0.0000
     54 H          -3.1360    7.6711    6.3756 H       1  UNL1        0.0000
     55 C          -0.4320   10.6597    9.4134 C.3     1  UNL1        0.0000
     56 H           0.2156   10.5732   10.2845 H       1  UNL1        0.0000
     57 H          -1.4631   10.7364    9.7496 H       1  UNL1        0.0000
     58 H          -0.1690   11.5815    8.8942 H       1  UNL1        0.0000
     59 C           2.6157    7.6566    6.8490 C.3     1  UNL1        0.0000
     60 H           3.3309    8.3552    7.2773 H       1  UNL1        0.0000
     61 H           2.7254    7.6620    5.7669 H       1  UNL1        0.0000
     62 H           2.8546    6.6558    7.2043 H       1  UNL1        0.0000
     63 C           4.1193    2.8212   -0.2155 C.3     1  UNL1        0.0000
     64 H           3.6074    3.2416   -1.0751 H       1  UNL1        0.0000
     65 H           4.9263    2.2003   -0.5881 H       1  UNL1        0.0000
     66 H           4.5644    3.6420    0.3345 H       1  UNL1        0.0000
     67 C           1.6801    0.9785   -0.3777 C.3     1  UNL1        0.0000
     68 H           0.8815    0.4595    0.1439 H       1  UNL1        0.0000
     69 H           2.1660    0.2742   -1.0431 H       1  UNL1        0.0000
     70 H           1.2232    1.7441   -0.9969 H       1  UNL1        0.0000
     71 C           3.7353    0.6184    2.1008 C.3     1  UNL1        0.0000
     72 C           4.4597    1.1390    3.2204 C.3     1  UNL1        0.0000
     73 C           4.3815    0.2070    4.2817 C.3     1  UNL1        0.0000
     74 C           3.5779   -0.8834    3.8418 C.2     1  UNL1        0.0000
     75 C           3.1870   -0.6298    2.5101 C.2     1  UNL1        0.0000
     76 C           5.3366    2.3629    3.2034 C.3     1  UNL1        0.0000
     77 H           4.9146    3.1304    2.5569 H       1  UNL1        0.0000
     78 H           6.3280    2.1133    2.8150 H       1  UNL1        0.0000
     79 H           5.4725    2.7737    4.2064 H       1  UNL1        0.0000
     80 C           5.2018    0.2153    5.5440 C.3     1  UNL1        0.0000
     81 H           4.6854   -0.3047    6.3494 H       1  UNL1        0.0000
     82 H           5.4250    1.2306    5.8737 H       1  UNL1        0.0000
     83 H           6.1538   -0.2955    5.3758 H       1  UNL1        0.0000
     84 C           3.3225   -2.1325    4.6404 C.3     1  UNL1        0.0000
     85 H           2.6282   -2.7901    4.1219 H       1  UNL1        0.0000
     86 H           2.8973   -1.8926    5.6175 H       1  UNL1        0.0000
     87 H           4.2520   -2.6818    4.8063 H       1  UNL1        0.0000
     88 C           2.5025   -1.6107    1.5959 C.3     1  UNL1        0.0000
     89 H           2.7824   -2.6308    1.8589 H       1  UNL1        0.0000
     90 H           2.8152   -1.4339    0.5694 H       1  UNL1        0.0000
     91 H           1.4138   -1.5418    1.6357 H       1  UNL1        0.0000
@<TRIPOS>BOND
     1    64    63    1
     2    69    67    1
     3    70    67    1
     4    65    63    1
     5    67    68    1
     6    67     1    1
     7    63    66    1
     8    63     1    1
     9    37    35    1
    10    36    35    1
    11    12    11    1
    12    90    88    1
    13    35    38    1
    14    35    27    1
    15     1    71    1
    16     1     3    1
    17    10     9    1
    18    11     9    2
    19    11     4    1
    20    29    28    1
    21    88    91    1
    22    88    89    1
    23    88    75    1
    24     9     7    1
    25    27    28   ar
    26    27    25   ar
    27    71    75    1
    28    71    72    1
    29     3     4    1
    30    28    30   ar
    31     4     5    1
    32    75    74    2
    33    77    76    1
    34    26    25    1
    35    78    76    1
    36    42    39    1
    37    25    24   ar
    38    76    72    1
    39    76    79    1
    40    72    73    1
    41     7     8    1
    42     7     6    2
    43    30    39    1
    44    30    23   ar
    45     5     6    1
    46    39    41    1
    47    39    40    1
    48    74    73    1
    49    74    84    1
    50     6    13    1
    51    85    84    1
    52    24    23   ar
    53    24    31    1
    54    73    80    1
    55    23     2    1
    56    84    87    1
    57    84    86    1
    58    33    31    1
    59    31    32    1
    60    31    34    1
    61    83    80    1
    62    22    21    1
    63    80    82    1
    64    80    81    1
    65    13    21   ar
    66    13    14   ar
    67    61    59    1
    68     2    14    1
    69     2    43    1
    70    53    51    1
    71    21    19   ar
    72    54    51    1
    73    14    15   ar
    74    51    44    1
    75    51    52    1
    76    43    44   ar
    77    43    50   ar
    78    59    62    1
    79    59    50    1
    80    59    60    1
    81    44    45   ar
    82    50    48   ar
    83    19    20    1
    84    19    17   ar
    85    15    17   ar
    86    15    16    1
    87    45    46    1
    88    45    47   ar
    89    48    49    1
    90    48    47   ar
    91    17    18    1
    92    47    55    1
    93    58    55    1
    94    55    57    1
    95    55    56    1
