@<TRIPOS>MOLECULE
3,4,5
 67 67 0 0 0
SMALL
GASTEIGER

@<TRIPOS>ATOM
      1 SI         15.7948    3.3753    0.5754 Si      1  UNL1        0.0000
      2 SI         12.1838   -0.7780   -0.2952 Si      1  UNL1        0.0000
      3 N          14.8965    1.8727    0.5798 N.3     1  UNL1        0.0000
      4 N          13.4733    0.2668    0.2663 N.3     1  UNL1        0.0000
      5 C          13.7906    1.5092   -0.0279 C.3     1  UNL1        0.0000
      6 C          11.9285    3.3958    1.1284 C.3     1  UNL1        0.0000
      7 C          10.8271    2.4526    1.6209 C.3     1  UNL1        0.0000
      8 C          11.6296    4.8211    1.5976 C.3     1  UNL1        0.0000
      9 C          14.1703    1.2977   -2.8839 C.3     1  UNL1        0.0000
     10 C          13.6424    0.5636   -4.1183 C.3     1  UNL1        0.0000
     11 C          15.4672    2.0339   -3.2321 C.3     1  UNL1        0.0000
     12 C          10.6508    4.8474   -3.5240 C.3     1  UNL1        0.0000
     13 C          11.5405    5.7761   -4.3529 C.3     1  UNL1        0.0000
     14 C           9.7655    3.9887   -4.4297 C.3     1  UNL1        0.0000
     15 C          12.9974    2.3768   -0.9224 C.ar    1  UNL1        0.0000
     16 C          12.0895    3.2850   -0.3710 C.ar    1  UNL1        0.0000
     17 C          11.3302    4.0587   -1.2369 C.ar    1  UNL1        0.0000
     18 C          11.4828    3.9786   -2.6126 C.ar    1  UNL1        0.0000
     19 C          12.4119    3.0880   -3.1298 C.ar    1  UNL1        0.0000
     20 C          13.1636    2.2654   -2.3049 C.ar    1  UNL1        0.0000
     21 C          15.0464    4.7665   -0.4920 C.3     1  UNL1        0.0000
     22 C          15.8115    3.9286    2.4061 C.3     1  UNL1        0.0000
     23 C          17.5367    2.9688   -0.1080 C.3     1  UNL1        0.0000
     24 C          10.8014    0.0826   -1.2872 C.3     1  UNL1        0.0000
     25 C          11.4308   -1.4921    1.3163 C.3     1  UNL1        0.0000
     26 C          13.0070   -2.0922   -1.4182 C.3     1  UNL1        0.0000
     27 H          12.8670    3.0776    1.5938 H       1  UNL1        0.0000
     28 H          11.0985    1.4186    1.4250 H       1  UNL1        0.0000
     29 H          10.6980    2.5691    2.6944 H       1  UNL1        0.0000
     30 H           9.8825    2.6742    1.1265 H       1  UNL1        0.0000
     31 H          12.3171    5.5369    1.1520 H       1  UNL1        0.0000
     32 H          11.7337    4.8742    2.6789 H       1  UNL1        0.0000
     33 H          10.6128    5.1138    1.3464 H       1  UNL1        0.0000
     34 H          14.4062    0.5495   -2.1198 H       1  UNL1        0.0000
     35 H          12.6502    0.1570   -3.9369 H       1  UNL1        0.0000
     36 H          14.3103   -0.2580   -4.3663 H       1  UNL1        0.0000
     37 H          13.5939    1.2259   -4.9798 H       1  UNL1        0.0000
     38 H          15.9110    2.4612   -2.3370 H       1  UNL1        0.0000
     39 H          16.1809    1.3395   -3.6696 H       1  UNL1        0.0000
     40 H          15.2750    2.8336   -3.9459 H       1  UNL1        0.0000
     41 H           9.9985    5.4692   -2.9007 H       1  UNL1        0.0000
     42 H          12.1749    6.3728   -3.7012 H       1  UNL1        0.0000
     43 H          12.1781    5.2055   -5.0235 H       1  UNL1        0.0000
     44 H          10.9290    6.4476   -4.9517 H       1  UNL1        0.0000
     45 H           9.1399    3.3295   -3.8317 H       1  UNL1        0.0000
     46 H          10.3700    3.3766   -5.0942 H       1  UNL1        0.0000
     47 H           9.1219    4.6214   -5.0370 H       1  UNL1        0.0000
     48 H          10.6054    4.7498   -0.8346 H       1  UNL1        0.0000
     49 H          12.5477    3.0263   -4.1977 H       1  UNL1        0.0000
     50 H          15.7276    5.6105   -0.4746 H       1  UNL1        0.0000
     51 H          14.8998    4.4786   -1.5265 H       1  UNL1        0.0000
     52 H          14.0914    5.1062   -0.1117 H       1  UNL1        0.0000
     53 H          16.5898    4.6642    2.5815 H       1  UNL1        0.0000
     54 H          15.9942    3.0840    3.0676 H       1  UNL1        0.0000
     55 H          14.8641    4.3746    2.6981 H       1  UNL1        0.0000
     56 H          17.7899    3.5998   -0.9551 H       1  UNL1        0.0000
     57 H          18.2953    3.1236    0.6527 H       1  UNL1        0.0000
     58 H          17.6104    1.9312   -0.4295 H       1  UNL1        0.0000
     59 H          10.0513   -0.6614   -1.5336 H       1  UNL1        0.0000
     60 H          11.1600    0.5117   -2.2150 H       1  UNL1        0.0000
     61 H          10.3128    0.8745   -0.7330 H       1  UNL1        0.0000
     62 H          10.3613   -1.3119    1.3715 H       1  UNL1        0.0000
     63 H          11.5855   -2.5647    1.3768 H       1  UNL1        0.0000
     64 H          11.8931   -1.0466    2.1965 H       1  UNL1        0.0000
     65 H          12.7088   -3.0943   -1.1266 H       1  UNL1        0.0000
     66 H          14.0930   -2.0469   -1.3567 H       1  UNL1        0.0000
     67 H          12.7288   -1.9574   -2.4591 H       1  UNL1        0.0000
@<TRIPOS>BOND
     1    46    14    1
     2    47    14    1
     3    43    13    1
     4    37    10    1
     5    44    13    1
     6    14    45    1
     7    14    12    1
     8    36    10    1
     9    13    42    1
    10    13    12    1
    11    49    19    1
    12    10    35    1
    13    10     9    1
    14    40    11    1
    15    39    11    1
    16    12    41    1
    17    12    18    1
    18    11     9    1
    19    11    38    1
    20    19    18   ar
    21    19    20   ar
    22     9    20    1
    23     9    34    1
    24    18    17   ar
    25    67    26    1
    26    20    15   ar
    27    60    24    1
    28    59    24    1
    29    51    21    1
    30    26    66    1
    31    26    65    1
    32    26     2    1
    33    24    61    1
    34    24     2    1
    35    17    48    1
    36    17    16   ar
    37    56    23    1
    38    15    16   ar
    39    15     5    1
    40    21    50    1
    41    21    52    1
    42    21     1    1
    43    58    23    1
    44    16     6    1
    45     2     4    1
    46     2    25    1
    47    23     1    1
    48    23    57    1
    49     5     4    1
    50     5     3    1
    51     1     3    1
    52     1    22    1
    53    30     7    1
    54     6    27    1
    55     6     8    1
    56     6     7    1
    57    31     8    1
    58    25    62    1
    59    25    63    1
    60    25    64    1
    61    33     8    1
    62    28     7    1
    63     8    32    1
    64     7    29    1
    65    22    53    1
    66    22    55    1
    67    22    54    1
