@<TRIPOS>MOLECULE
3,4,5
 67 67 0 0 0
SMALL
GASTEIGER

@<TRIPOS>ATOM
      1 SI          5.2448   -1.9565    4.9866 Si      1  UNL1        0.0000
      2 SI          5.9663    2.8165    2.2197 Si      1  UNL1        0.0000
      3 N           5.8128   -0.4995    4.2237 N.3     1  UNL1        0.0000
      4 N           6.1905    1.3343    3.1193 N.3     1  UNL1        0.0000
      5 C           5.2779    0.4992    3.5644 C.3     1  UNL1        0.0000
      6 C           3.7798    2.1406    5.4015 C.3     1  UNL1        0.0000
      7 C           3.3416    3.5976    5.5618 C.3     1  UNL1        0.0000
      8 C           3.5186    1.3749    6.7010 C.3     1  UNL1        0.0000
      9 C           4.0165   -0.8702    1.3550 C.3     1  UNL1        0.0000
     10 C           3.3913   -2.2562    1.1762 C.3     1  UNL1        0.0000
     11 C           4.1737   -0.1870   -0.0060 C.3     1  UNL1        0.0000
     12 C          -0.4018    1.0810    2.7989 C.3     1  UNL1        0.0000
     13 C          -0.7060    1.7531    1.4583 C.3     1  UNL1        0.0000
     14 C          -1.1073   -0.2728    2.9024 C.3     1  UNL1        0.0000
     15 C           3.8252    0.6548    3.3618 C.ar    1  UNL1        0.0000
     16 C           3.0937    1.4486    4.2462 C.ar    1  UNL1        0.0000
     17 C           1.7241    1.5573    4.0517 C.ar    1  UNL1        0.0000
     18 C           1.0868    0.9267    2.9937 C.ar    1  UNL1        0.0000
     19 C           1.8432    0.1547    2.1233 C.ar    1  UNL1        0.0000
     20 C           3.2090   -0.0082    2.2986 C.ar    1  UNL1        0.0000
     21 C           3.3489   -2.1265    5.1302 C.3     1  UNL1        0.0000
     22 C           5.9739   -3.3947    3.9598 C.3     1  UNL1        0.0000
     23 C           6.0508   -1.9384    6.7195 C.3     1  UNL1        0.0000
     24 C           7.0200    2.5728    0.6369 C.3     1  UNL1        0.0000
     25 C           6.6327    4.1864    3.3832 C.3     1  UNL1        0.0000
     26 C           4.1955    3.2839    1.6826 C.3     1  UNL1        0.0000
     27 H           4.8588    2.1281    5.2158 H       1  UNL1        0.0000
     28 H           3.4353    4.1394    4.6240 H       1  UNL1        0.0000
     29 H           3.9703    4.0856    6.3026 H       1  UNL1        0.0000
     30 H           2.3100    3.6645    5.8991 H       1  UNL1        0.0000
     31 H           4.0017    1.8819    7.5329 H       1  UNL1        0.0000
     32 H           3.9228    0.3692    6.6298 H       1  UNL1        0.0000
     33 H           2.4507    1.3111    6.9017 H       1  UNL1        0.0000
     34 H           5.0178   -0.9984    1.7785 H       1  UNL1        0.0000
     35 H           4.0666   -2.8909    0.6069 H       1  UNL1        0.0000
     36 H           3.2062   -2.7254    2.1392 H       1  UNL1        0.0000
     37 H           2.4508   -2.1958    0.6335 H       1  UNL1        0.0000
     38 H           4.7144   -0.8415   -0.6855 H       1  UNL1        0.0000
     39 H           4.7376    0.7357    0.0977 H       1  UNL1        0.0000
     40 H           3.2017    0.0387   -0.4410 H       1  UNL1        0.0000
     41 H          -0.7854    1.7261    3.5970 H       1  UNL1        0.0000
     42 H          -0.1903    2.7083    1.3886 H       1  UNL1        0.0000
     43 H          -1.7750    1.9278    1.3589 H       1  UNL1        0.0000
     44 H          -0.3834    1.1281    0.6295 H       1  UNL1        0.0000
     45 H          -0.8829   -0.7444    3.8566 H       1  UNL1        0.0000
     46 H          -2.1845   -0.1427    2.8248 H       1  UNL1        0.0000
     47 H          -0.7851   -0.9399    2.1069 H       1  UNL1        0.0000
     48 H           1.1360    2.1514    4.7351 H       1  UNL1        0.0000
     49 H           1.3579   -0.3364    1.2945 H       1  UNL1        0.0000
     50 H           3.0992   -3.1752    5.2514 H       1  UNL1        0.0000
     51 H           2.9592   -1.5995    5.9938 H       1  UNL1        0.0000
     52 H           2.8226   -1.7541    4.2593 H       1  UNL1        0.0000
     53 H           5.7528   -4.3518    4.4218 H       1  UNL1        0.0000
     54 H           7.0560   -3.3066    3.8866 H       1  UNL1        0.0000
     55 H           5.5826   -3.4188    2.9470 H       1  UNL1        0.0000
     56 H           5.7295   -2.7915    7.3084 H       1  UNL1        0.0000
     57 H           7.1347   -1.9834    6.6391 H       1  UNL1        0.0000
     58 H           5.8075   -1.0399    7.2805 H       1  UNL1        0.0000
     59 H           6.4255    2.7101   -0.2613 H       1  UNL1        0.0000
     60 H           7.8386    3.2831    0.5816 H       1  UNL1        0.0000
     61 H           7.4459    1.5730    0.6039 H       1  UNL1        0.0000
     62 H           7.3403    4.8355    2.8771 H       1  UNL1        0.0000
     63 H           7.1311    3.7571    4.2493 H       1  UNL1        0.0000
     64 H           5.8299    4.8187    3.7497 H       1  UNL1        0.0000
     65 H           4.2429    4.2029    1.1062 H       1  UNL1        0.0000
     66 H           3.5365    3.4565    2.5252 H       1  UNL1        0.0000
     67 H           3.7270    2.5287    1.0621 H       1  UNL1        0.0000
@<TRIPOS>BOND
     1    38    11    1
     2    40    11    1
     3    59    24    1
     4    11    39    1
     5    11     9    1
     6    60    24    1
     7    61    24    1
     8    35    10    1
     9    44    13    1
    10    37    10    1
    11    24     2    1
    12    67    26    1
    13    65    26    1
    14    10     9    1
    15    10    36    1
    16    49    19    1
    17     9    34    1
    18     9    20    1
    19    43    13    1
    20    42    13    1
    21    13    12    1
    22    26     2    1
    23    26    66    1
    24    47    14    1
    25    19    20   ar
    26    19    18   ar
    27     2     4    1
    28     2    25    1
    29    20    15   ar
    30    12    14    1
    31    12    18    1
    32    12    41    1
    33    46    14    1
    34    62    25    1
    35    14    45    1
    36    55    22    1
    37    18    17   ar
    38     4     5    1
    39    15     5    1
    40    15    16   ar
    41    25    64    1
    42    25    63    1
    43     5     3    1
    44    54    22    1
    45    22    53    1
    46    22     1    1
    47    17    16   ar
    48    17    48    1
    49     3     1    1
    50    16     6    1
    51    52    21    1
    52    28     7    1
    53     1    21    1
    54     1    23    1
    55    21    50    1
    56    21    51    1
    57    27     6    1
    58     6     7    1
    59     6     8    1
    60     7    30    1
    61     7    29    1
    62    32     8    1
    63    57    23    1
    64     8    33    1
    65     8    31    1
    66    23    58    1
    67    23    56    1
