@<TRIPOS>MOLECULE
1,2,14
 53 56 0 0 0
SMALL
GASTEIGER

@<TRIPOS>ATOM
      1 N           2.2254    8.3069   16.2722 N.3     1  UNL1       -0.2355
      2 C           4.4674    7.2058   14.8379 C.3     1  UNL1        0.0367
      3 C           5.6313    7.4052   12.8001 C.ar    1  UNL1       -0.0135
      4 C           3.5989    6.0529   12.6650 C.ar    1  UNL1       -0.0571
      5 H           2.7384    5.5781   13.1253 H       1  UNL1        0.0621
      6 C           5.7012    7.9385   15.0558 C.ar    1  UNL1       -0.0280
      7 C           2.9819    7.2506   16.9257 C.3     1  UNL1        0.0155
      8 H           2.3120    6.5939   17.5100 H       1  UNL1        0.0441
      9 H           3.7027    7.6832   17.6482 H       1  UNL1        0.0441
     10 C           4.4740    6.8441   13.4266 C.ar    1  UNL1       -0.0280
     11 C           6.3883    8.0893   13.8091 C.ar    1  UNL1       -0.0135
     12 C           1.6663    9.2348   17.2315 C.3     1  UNL1        0.0409
     13 H           2.3152    9.2953   18.1280 H       1  UNL1        0.0492
     14 N           2.7569   11.0686   15.9165 N.3     1  UNL1       -0.3039
     15 C           7.5880    8.7891   13.7460 C.ar    1  UNL1       -0.0537
     16 H           8.1014    8.9067   12.8020 H       1  UNL1        0.0624
     17 C           6.2836    8.4589   16.2193 C.ar    1  UNL1       -0.0571
     18 H           5.8117    8.3166   17.1827 H       1  UNL1        0.0621
     19 C           5.8626    7.2080   11.4438 C.ar    1  UNL1       -0.0537
     20 H           6.7344    7.6376   10.9709 H       1  UNL1        0.0624
     21 C           3.7519    6.3866   15.9083 C.3     1  UNL1       -0.0240
     22 H           4.4768    5.7710   16.4540 H       1  UNL1        0.0290
     23 H           3.0431    5.7123   15.4173 H       1  UNL1        0.0290
     24 C           3.8805   11.3473   16.8175 C.3     1  UNL1       -0.0127
     25 H           4.7895   11.4901   16.2286 H       1  UNL1        0.0391
     26 H           4.0393   10.5049   17.4877 H       1  UNL1        0.0391
     27 H           3.7124   12.2522   17.4147 H       1  UNL1        0.0391
     28 C           1.5233   10.6567   16.6363 C.3     1  UNL1        0.0267
     29 H           0.7426   10.6050   15.8636 H       1  UNL1        0.0478
     30 C           1.0453   11.6111   17.7380 C.3     1  UNL1       -0.0359
     31 H           1.7431   11.5977   18.5775 H       1  UNL1        0.0281
     32 H           0.9812   12.6337   17.3619 H       1  UNL1        0.0281
     33 C           0.2684    8.7918   17.7163 C.3     1  UNL1       -0.0345
     34 H          -0.4008    8.7510   16.8538 H       1  UNL1        0.0281
     35 H           0.3427    7.7847   18.1279 H       1  UNL1        0.0281
     36 C          -0.3324   11.1721   18.2299 C.3     1  UNL1       -0.0515
     37 H          -0.6788   11.8534   19.0099 H       1  UNL1        0.0266
     38 H          -1.0443   11.2209   17.4030 H       1  UNL1        0.0266
     39 C           2.5095   12.2537   15.0884 C.3     1  UNL1       -0.0127
     40 H           2.2506   13.1319   15.6940 H       1  UNL1        0.0391
     41 H           1.7035   12.0508   14.3828 H       1  UNL1        0.0391
     42 H           3.4102   12.4908   14.5221 H       1  UNL1        0.0391
     43 C           8.1217    9.3187   14.9030 C.ar    1  UNL1       -0.0612
     44 H           9.0547    9.8623   14.8684 H       1  UNL1        0.0618
     45 C          -0.2784    9.7472   18.7704 C.3     1  UNL1       -0.0515
     46 H           0.3663    9.7194   19.6522 H       1  UNL1        0.0266
     47 H          -1.2765    9.4296   19.0782 H       1  UNL1        0.0266
     48 C           7.4774    9.1426   16.1289 C.ar    1  UNL1       -0.0614
     49 H           7.9307    9.5452   17.0243 H       1  UNL1        0.0618
     50 C           3.8588    5.8676   11.3247 C.ar    1  UNL1       -0.0614
     51 H           3.1923    5.2578   10.7308 H       1  UNL1        0.0618
     52 C           4.9751    6.4440   10.7138 C.ar    1  UNL1       -0.0612
     53 H           5.1475    6.2753    9.6607 H       1  UNL1        0.0618
@<TRIPOS>BOND
     1    53    52    1
     2    52    50   ar
     3    52    19   ar
     4    51    50    1
     5    20    19    1
     6    50     4   ar
     7    19     3   ar
     8     4     5    1
     9     4    10   ar
    10     3    10   ar
    11     3    11    1
    12    16    15    1
    13    10     2    1
    14    15    11   ar
    15    15    43   ar
    16    11     6   ar
    17    41    39    1
    18    42    39    1
    19     2     6    1
    20     2    21    1
    21    44    43    1
    22    43    48   ar
    23     6    17   ar
    24    39    40    1
    25    39    14    1
    26    23    21    1
    27    29    28    1
    28    21    22    1
    29    21     7    1
    30    14    28    1
    31    14    24    1
    32    48    17   ar
    33    48    49    1
    34    17    18    1
    35    25    24    1
    36     1     7    1
    37     1    12    1
    38    28    12    1
    39    28    30    1
    40    24    27    1
    41    24    26    1
    42    34    33    1
    43     7     8    1
    44     7     9    1
    45    12    33    1
    46    12    13    1
    47    32    30    1
    48    38    36    1
    49    33    35    1
    50    33    45    1
    51    30    36    1
    52    30    31    1
    53    36    45    1
    54    36    37    1
    55    45    47    1
    56    45    46    1
