@<TRIPOS>MOLECULE
3,4,5
 40 40 0 0 0
SMALL
GASTEIGER

@<TRIPOS>ATOM
      1 SI          3.7874    9.0275   10.0226 Si      1  UNL1        0.0000
      2 SI          4.8959   11.2613   14.9351 Si      1  UNL1        0.0000
      3 N           4.1818    9.1706   11.7124 N.3     1  UNL1        0.0000
      4 N           4.6330   10.0724   13.6904 N.3     1  UNL1        0.0000
      5 C           4.2421   10.2675   12.4443 C.3     1  UNL1        0.0000
      6 C           4.0202   11.6164   11.8811 C.ar    1  UNL1        0.0000
      7 C           5.1319   12.2639   11.3496 C.ar    1  UNL1        0.0000
      8 C           4.9972   13.5286   10.8055 C.ar    1  UNL1        0.0000
      9 C           3.7575   14.1483   10.7901 C.ar    1  UNL1        0.0000
     10 C           2.6522   13.5030   11.3189 C.ar    1  UNL1        0.0000
     11 C           2.7795   12.2368   11.8655 C.ar    1  UNL1        0.0000
     12 C           1.9901    9.6112    9.7200 C.3     1  UNL1        0.0000
     13 C           3.9057    7.1431    9.7341 C.3     1  UNL1        0.0000
     14 C           4.9571    9.9870    8.8538 C.3     1  UNL1        0.0000
     15 C           5.3635   10.1750   16.4351 C.3     1  UNL1        0.0000
     16 C           6.2645   12.5336   14.5311 C.3     1  UNL1        0.0000
     17 C           3.2666   12.1953   15.3036 C.3     1  UNL1        0.0000
     18 H           6.0925   11.7611   11.3704 H       1  UNL1        0.0000
     19 H           5.8589   14.0316   10.3931 H       1  UNL1        0.0000
     20 H           3.6534   15.1354   10.3653 H       1  UNL1        0.0000
     21 H           1.6869   13.9870   11.3062 H       1  UNL1        0.0000
     22 H           1.9226   11.7279   12.2805 H       1  UNL1        0.0000
     23 H           1.6467    9.2741    8.7487 H       1  UNL1        0.0000
     24 H           1.9148   10.6935    9.7380 H       1  UNL1        0.0000
     25 H           1.3070    9.2180   10.4661 H       1  UNL1        0.0000
     26 H           3.6604    6.8971    8.7066 H       1  UNL1        0.0000
     27 H           4.9173    6.7934    9.9253 H       1  UNL1        0.0000
     28 H           3.2235    6.5896   10.3739 H       1  UNL1        0.0000
     29 H           4.8223    9.6587    7.8283 H       1  UNL1        0.0000
     30 H           4.7741   11.0577    8.8839 H       1  UNL1        0.0000
     31 H           5.9958    9.8118    9.1203 H       1  UNL1        0.0000
     32 H           5.5320   10.7868   17.3148 H       1  UNL1        0.0000
     33 H           6.2799    9.6255   16.2339 H       1  UNL1        0.0000
     34 H           4.5811    9.4608   16.6784 H       1  UNL1        0.0000
     35 H           6.5571   13.0739   15.4255 H       1  UNL1        0.0000
     36 H           7.1498   12.0366   14.1440 H       1  UNL1        0.0000
     37 H           5.9363   13.2647   13.7972 H       1  UNL1        0.0000
     38 H           3.3445   12.7249   16.2462 H       1  UNL1        0.0000
     39 H           2.4215   11.5180   15.3748 H       1  UNL1        0.0000
     40 H           3.0429   12.9258   14.5332 H       1  UNL1        0.0000
@<TRIPOS>BOND
     1    29    14    1
     2    26    13    1
     3    23    12    1
     4    14    30    1
     5    14    31    1
     6    14     1    1
     7    12    24    1
     8    12     1    1
     9    12    25    1
    10    13    27    1
    11    13     1    1
    12    13    28    1
    13     1     3    1
    14    20     9    1
    15    19     8    1
    16     9     8   ar
    17     9    10   ar
    18     8     7   ar
    19    21    10    1
    20    10    11   ar
    21     7    18    1
    22     7     6   ar
    23     3     5    1
    24    11     6   ar
    25    11    22    1
    26     6     5    1
    27     5     4    1
    28     4     2    1
    29    37    16    1
    30    36    16    1
    31    16     2    1
    32    16    35    1
    33    40    17    1
    34     2    17    1
    35     2    15    1
    36    17    39    1
    37    17    38    1
    38    33    15    1
    39    15    34    1
    40    15    32    1
