@<TRIPOS>MOLECULE
3,4,11
 37 37 0 0 0
SMALL
GASTEIGER

@<TRIPOS>ATOM
      1 SI          1.2541    0.4876    5.0521 Si      1  UNL1        0.0000
      2 SI          3.1197    4.3314    8.9068 Si      1  UNL1        0.0000
      3 N           1.7872    2.0787    5.5388 N.pl3   1  UNL1        0.0000
      4 N           2.6382    3.5146    7.4470 N.pl3   1  UNL1        0.0000
      5 C           2.9648    2.7351    5.2442 C.ar    1  UNL1        0.0000
      6 C           3.6787    2.6452    4.0586 C.ar    1  UNL1        0.0000
      7 C           4.8533    3.3652    3.9023 C.ar    1  UNL1        0.0000
      8 C           5.3162    4.1655    4.9301 C.ar    1  UNL1        0.0000
      9 C           4.6176    4.2593    6.1261 C.ar    1  UNL1        0.0000
     10 C           3.4372    3.5523    6.3070 C.ar    1  UNL1        0.0000
     11 C           0.0376    0.4553    6.5225 C.3     1  UNL1        0.0000
     12 C           2.6325   -0.8468    5.1210 C.3     1  UNL1        0.0000
     13 C           0.4991    0.4377    3.2884 C.3     1  UNL1        0.0000
     14 C           4.6742    3.5454    9.7068 C.3     1  UNL1        0.0000
     15 C           3.4344    6.2092    8.6183 C.3     1  UNL1        0.0000
     16 C           1.6882    4.2417   10.1755 C.3     1  UNL1        0.0000
     17 H           3.3035    2.0109    3.2686 H       1  UNL1        0.0000
     18 H           5.4056    3.2939    2.9770 H       1  UNL1        0.0000
     19 H           6.2343    4.7214    4.8104 H       1  UNL1        0.0000
     20 H           5.0007    4.8758    6.9226 H       1  UNL1        0.0000
     21 H          -0.9996    0.5684    6.1806 H       1  UNL1        0.0000
     22 H           0.0822   -0.4944    7.0719 H       1  UNL1        0.0000
     23 H           2.3522   -1.7252    4.5495 H       1  UNL1        0.0000
     24 H           2.8311   -1.1625    6.1421 H       1  UNL1        0.0000
     25 H           3.5614   -0.4661    4.7057 H       1  UNL1        0.0000
     26 H          -0.0191   -0.5020    3.1305 H       1  UNL1        0.0000
     27 H           1.2662    0.5189    2.5254 H       1  UNL1        0.0000
     28 H          -0.2143    1.2395    3.1239 H       1  UNL1        0.0000
     29 H           5.0545    4.1672   10.5114 H       1  UNL1        0.0000
     30 H           5.4752    3.4107    8.9860 H       1  UNL1        0.0000
     31 H           4.4450    2.5678   10.1219 H       1  UNL1        0.0000
     32 H           4.4932    6.4412    8.6610 H       1  UNL1        0.0000
     33 H           2.9480    6.8060    9.3831 H       1  UNL1        0.0000
     34 H           3.0678    6.5449    7.6528 H       1  UNL1        0.0000
     35 H           1.2019    3.2651   10.1681 H       1  UNL1        0.0000
     36 H           0.9377    5.0096   10.0122 H       1  UNL1        0.0000
     37 H           2.0912    4.4012   11.1702 H       1  UNL1        0.0000
@<TRIPOS>BOND
     1    27    13    1
     2    18     7    1
     3    28    13    1
     4    26    13    1
     5    17     6    1
     6    13     1    1
     7     7     6   ar
     8     7     8   ar
     9     6     5   ar
    10    23    12    1
    11    25    12    1
    12    19     8    1
    13     8     9   ar
    14     1    12    1
    15     1     3    1
    16     1    11    1
    17    12    24    1
    18     5     3    1
    19     5    10   ar
    20     9    10   ar
    21     9    20    1
    22    21    11    1
    23    10     4    1
    24    11    22    1
    25     4     2    1
    26    34    15    1
    27    15    32    1
    28    15     2    1
    29    15    33    1
    30     2    14    1
    31     2    16    1
    32    30    14    1
    33    14    31    1
    34    14    29    1
    35    36    16    1
    36    35    16    1
    37    16    37    1
