@<TRIPOS>MOLECULE
1,2,3
 14 13 0 0 0
SMALL
GASTEIGER

@<TRIPOS>ATOM
      1 O           5.8567    6.1667    5.2555 O.co2   1  UNL1       -0.2413
      2 O           3.7153    5.8602    5.4070 O.co2   1  UNL1       -0.2413
      3 C           4.7060    6.2900    4.7609 C.2     1  UNL1        0.3788
      4 C           4.5219    6.9220    3.4314 C.2     1  UNL1        0.0187
      5 C           3.2837    6.9966    2.9345 C.3     1  UNL1       -0.0094
      6 H           2.4754    6.5945    3.5320 H       1  UNL1        0.0351
      7 C           5.7579    7.4330    2.7503 C.3     1  UNL1       -0.0364
      8 H           5.9457    6.8844    1.8277 H       1  UNL1        0.0277
      9 H           6.6119    7.3106    3.4116 H       1  UNL1        0.0277
     10 H           5.6533    8.4887    2.5071 H       1  UNL1        0.0277
     11 C           2.8961    7.5914    1.6284 C.3     1  UNL1       -0.0579
     12 H           3.7551    7.9659    1.0806 H       1  UNL1        0.0236
     13 H           2.1951    8.4094    1.7933 H       1  UNL1        0.0236
     14 H           2.3844    6.8455    1.0202 H       1  UNL1        0.0236
@<TRIPOS>BOND
     1    14    11    1
     2    12    11    1
     3    11    13    1
     4    11     5    1
     5     8     7    1
     6    10     7    1
     7     7     9    1
     8     7     4    1
     9     5     4    1
    10     5     6    1
    11     4     3    2
    12     3     1   ar
    13     3     2   ar
