@<TRIPOS>MOLECULE
2,3,6
 29 29 0 0 0
SMALL
GASTEIGER

@<TRIPOS>ATOM
      1 SI         -8.2925   -7.4844   -1.8883 Si      1  UNL1        0.0000
      2 O          -6.2943   -5.2386   -4.1653 O.2     1  UNL1        0.0000
      3 O          -5.6901   -3.8975   -5.7572 O.2     1  UNL1        0.0000
      4 O          -6.9037   -7.9646   -4.4517 O.2     1  UNL1        0.0000
      5 O          -8.5104   -6.8072   -3.4246 O.3     1  UNL1        0.0000
      6 C          -6.4723   -4.7842   -5.3355 C.3     1  UNL1        0.0000
      7 C          -7.5785   -5.3097   -6.1602 C.ar    1  UNL1        0.0000
      8 C          -7.9603   -4.6916   -7.3463 C.ar    1  UNL1        0.0000
      9 C          -9.0054   -5.2121   -8.0852 C.ar    1  UNL1        0.0000
     10 C          -9.6671   -6.3489   -7.6449 C.ar    1  UNL1        0.0000
     11 C          -9.2855   -6.9733   -6.4679 C.ar    1  UNL1        0.0000
     12 C          -8.2392   -6.4566   -5.7199 C.ar    1  UNL1        0.0000
     13 C          -7.7804   -7.1371   -4.4618 C.2     1  UNL1        0.0000
     14 C          -6.5014   -7.3530   -1.2934 C.3     1  UNL1        0.0000
     15 C          -9.5109   -6.4270   -0.8814 C.3     1  UNL1        0.0000
     16 C          -8.8884   -9.2928   -2.0076 C.3     1  UNL1        0.0000
     17 H          -7.4287   -3.8080   -7.6658 H       1  UNL1        0.0000
     18 H          -9.3074   -4.7345   -9.0052 H       1  UNL1        0.0000
     19 H         -10.4840   -6.7536   -8.2235 H       1  UNL1        0.0000
     20 H          -9.7956   -7.8629   -6.1307 H       1  UNL1        0.0000
     21 H          -6.0233   -6.4805   -1.7328 H       1  UNL1        0.0000
     22 H          -5.9234   -8.2225   -1.5941 H       1  UNL1        0.0000
     23 H          -6.4353   -7.2690   -0.2128 H       1  UNL1        0.0000
     24 H         -10.4864   -6.3740   -1.3551 H       1  UNL1        0.0000
     25 H          -9.1519   -5.4116   -0.7514 H       1  UNL1        0.0000
     26 H          -9.6456   -6.8561    0.1053 H       1  UNL1        0.0000
     27 H          -9.9200   -9.3516   -2.3457 H       1  UNL1        0.0000
     28 H          -8.8301   -9.7930   -1.0465 H       1  UNL1        0.0000
     29 H          -8.2784   -9.8539   -2.7102 H       1  UNL1        0.0000
@<TRIPOS>BOND
     1    18     9    1
     2    19    10    1
     3     9    10   ar
     4     9     8   ar
     5    17     8    1
     6    10    11   ar
     7     8     7   ar
     8    11    20    1
     9    11    12   ar
    10     7    12   ar
    11     7     6    1
    12     3     6    1
    13    12    13    1
    14     6     2    1
    15    13     4    2
    16    13     5    1
    17     5     1    1
    18    29    16    1
    19    27    16    1
    20    16     1    1
    21    16    28    1
    22     1    14    1
    23     1    15    1
    24    21    14    1
    25    22    14    1
    26    24    15    1
    27    14    23    1
    28    15    25    1
    29    15    26    1
