@<TRIPOS>MOLECULE
10,30,42
 65 65 0 0 0
SMALL
GASTEIGER

@<TRIPOS>ATOM
      1 C           6.4802    4.5866    5.5992 C.2     1  UNL1        0.0000
      2 C           7.3834    4.2066    6.5525 C.2     1  UNL1        0.0000
      3 C           6.9954    4.8773    7.8553 C.3     1  UNL1        0.0000
      4 C           5.6179    5.4256    7.5488 C.2     1  UNL1        0.0000
      5 C           5.3731    5.2972    6.2282 C.2     1  UNL1        0.0000
      6 C           6.7509    4.4505    4.1451 C.3     1  UNL1        0.0000
      7 H           5.8663    4.6300    3.5347 H       1  UNL1        0.0000
      8 H           7.1368    3.4514    3.9197 H       1  UNL1        0.0000
      9 C           7.8669    5.4956    3.7203 C.3     1  UNL1        0.0000
     10 O           8.8466    5.6303    4.6824 O.3     1  UNL1        0.0000
     11 C           7.2118    6.8605    3.4177 C.3     1  UNL1        0.0000
     12 H           6.6055    7.1795    4.2628 H       1  UNL1        0.0000
     13 H           6.5873    6.7904    2.5298 H       1  UNL1        0.0000
     14 H           7.9931    7.5998    3.2427 H       1  UNL1        0.0000
     15 C           8.4708    4.9967    2.4788 C.1     1  UNL1        0.0000
     16 C           9.0119    4.5809    1.4838 C.1     1  UNL1        0.0000
     17 SI          9.8575    3.9461   -0.0435 Si      1  UNL1        0.0000
     18 C           8.8105    4.4502   -1.5542 C.3     1  UNL1        0.0000
     19 H           7.8106    4.0307   -1.4962 H       1  UNL1        0.0000
     20 H           9.2593    4.1042   -2.4809 H       1  UNL1        0.0000
     21 H           8.7092    5.5293   -1.6204 H       1  UNL1        0.0000
     22 C           9.9865    2.0477    0.0818 C.3     1  UNL1        0.0000
     23 H          10.5848    1.7471    0.9367 H       1  UNL1        0.0000
     24 H          10.4455    1.6229   -0.8065 H       1  UNL1        0.0000
     25 H           9.0057    1.5950    0.1930 H       1  UNL1        0.0000
     26 C          11.5952    4.7266   -0.1389 C.3     1  UNL1        0.0000
     27 H          11.5386    5.8112   -0.1469 H       1  UNL1        0.0000
     28 H          12.1184    4.4187   -1.0400 H       1  UNL1        0.0000
     29 H          12.2063    4.4372    0.7107 H       1  UNL1        0.0000
     30 C           8.5913    3.4169    6.3902 C.3     1  UNL1        0.0000
     31 H           8.5557    2.7581    5.5133 H       1  UNL1        0.0000
     32 H           8.8673    2.8681    7.2945 H       1  UNL1        0.0000
     33 C           7.0389    3.9397    9.0602 C.3     1  UNL1        0.0000
     34 H           6.4848    3.0312    8.8310 H       1  UNL1        0.0000
     35 H           6.5980    4.4117    9.9343 H       1  UNL1        0.0000
     36 H           8.0705    3.6818    9.2957 H       1  UNL1        0.0000
     37 C           8.0245    6.0870    8.0430 C.3     1  UNL1        0.0000
     38 C           7.6268    7.3451    7.2415 C.3     1  UNL1        0.0000
     39 H           8.3895    8.1069    7.4203 H       1  UNL1        0.0000
     40 H           6.6564    7.7342    7.5356 H       1  UNL1        0.0000
     41 H           7.6283    7.0836    6.1821 H       1  UNL1        0.0000
     42 O           9.2892    5.7123    7.6210 O.3     1  UNL1        0.0000
     43 C           8.0763    6.4595    9.4584 C.1     1  UNL1        0.0000
     44 C           8.2035    6.7855   10.6127 C.1     1  UNL1        0.0000
     45 SI          8.3399    7.2271   12.4089 Si      1  UNL1        0.0000
     46 C           6.8552    6.4498   13.3209 C.3     1  UNL1        0.0000
     47 H           5.9139    6.8244   12.9295 H       1  UNL1        0.0000
     48 H           6.8799    6.6709   14.3843 H       1  UNL1        0.0000
     49 H           6.8490    5.3696   13.2097 H       1  UNL1        0.0000
     50 C           8.3039    9.1260   12.5816 C.3     1  UNL1        0.0000
     51 H           9.1279    9.5842   12.0428 H       1  UNL1        0.0000
     52 H           8.3793    9.4329   13.6210 H       1  UNL1        0.0000
     53 H           7.3824    9.5395   12.1826 H       1  UNL1        0.0000
     54 C           9.9806    6.5247   13.0795 C.3     1  UNL1        0.0000
     55 H          10.0183    5.4453   12.9675 H       1  UNL1        0.0000
     56 H          10.1125    6.7519   14.1338 H       1  UNL1        0.0000
     57 H          10.8303    6.9380   12.5445 H       1  UNL1        0.0000
     58 C           4.7661    6.0279    8.6149 C.3     1  UNL1        0.0000
     59 H           4.0610    6.7459    8.2007 H       1  UNL1        0.0000
     60 H           5.3863    6.5301    9.3566 H       1  UNL1        0.0000
     61 H           4.1929    5.2535    9.1285 H       1  UNL1        0.0000
     62 C           4.1494    5.7132    5.4788 C.3     1  UNL1        0.0000
     63 H           3.4308    6.1883    6.1407 H       1  UNL1        0.0000
     64 H           3.6753    4.8421    5.0266 H       1  UNL1        0.0000
     65 H           4.3976    6.4098    4.6786 H       1  UNL1        0.0000
@<TRIPOS>BOND
     1    20    18    1
     2    21    18    1
     3    18    19    1
     4    18    17    1
     5    28    26    1
     6    24    22    1
     7    27    26    1
     8    26    17    1
     9    26    29    1
    10    17    22    1
    11    17    16    1
    12    22    25    1
    13    22    23    1
    14    16    15    3
    15    15     9    1
    16    13    11    1
    17    14    11    1
    18    11     9    1
    19    11    12    1
    20     7     6    1
    21     9     6    1
    22     9    10    1
    23     8     6    1
    24     6     1    1
    25    65    62    1
    26    64    62    1
    27    62    63    1
    28    62     5    1
    29    31    30    1
    30     1     5    1
    31     1     2    2
    32    41    38    1
    33     5     4    2
    34    30     2    1
    35    30    32    1
    36     2     3    1
    37    38    39    1
    38    38    40    1
    39    38    37    1
    40     4     3    1
    41     4    58    1
    42    42    37    1
    43     3    37    1
    44     3    33    1
    45    37    43    1
    46    59    58    1
    47    58    61    1
    48    58    60    1
    49    34    33    1
    50    33    36    1
    51    33    35    1
    52    43    44    3
    53    44    45    1
    54    51    50    1
    55    53    50    1
    56    45    50    1
    57    45    54    1
    58    45    46    1
    59    57    54    1
    60    50    52    1
    61    47    46    1
    62    55    54    1
    63    54    56    1
    64    49    46    1
    65    46    48    1
