@<TRIPOS>MOLECULE
1,2,5
 79 81 0 0 0
SMALL
GASTEIGER

@<TRIPOS>ATOM
      1 O          20.4191   11.2372   13.2131 O.3     1  UNL1       -0.2856
      2 O          23.6220   10.7655   14.4236 O.3     1  UNL1       -0.2856
      3 N          20.8019    8.4908   12.9607 N.pl3   1  UNL1       -0.2981
      4 N          22.9243    8.2651   13.3788 N.pl3   1  UNL1       -0.2981
      5 C          21.8842    9.0930   13.4430 C.3     1  UNL1        0.1876
      6 C          21.0704    7.1079   12.5506 C.3     1  UNL1        0.0303
      7 H          20.7611    6.9486   11.5174 H       1  UNL1        0.0480
      8 H          20.5283    6.4137   13.2031 H       1  UNL1        0.0480
      9 C          22.5807    6.9937   12.7303 C.3     1  UNL1        0.0303
     10 H          22.8572    6.1494   13.3671 H       1  UNL1        0.0480
     11 H          23.1029    6.9207   11.7725 H       1  UNL1        0.0480
     12 C          19.5337    9.0728   12.8386 C.ar    1  UNL1        0.0794
     13 C          18.4412    8.2724   12.5334 C.ar    1  UNL1       -0.0332
     14 H          18.5871    7.2123   12.4008 H       1  UNL1        0.0640
     15 C          17.1666    8.8018   12.3963 C.ar    1  UNL1       -0.0397
     16 C          17.0104   10.1648   12.6134 C.ar    1  UNL1       -0.0506
     17 H          16.0271   10.5881   12.5326 H       1  UNL1        0.0625
     18 C          18.0669   11.0076   12.9220 C.ar    1  UNL1        0.0068
     19 C          19.3763   10.4744   13.0049 C.ar    1  UNL1        0.2035
     20 C          16.0155    7.8828   12.0130 C.3     1  UNL1       -0.0126
     21 C          16.3268    7.2367   10.6549 C.3     1  UNL1       -0.0560
     22 H          15.4981    6.6063   10.3388 H       1  UNL1        0.0238
     23 H          17.2208    6.6212   10.7032 H       1  UNL1        0.0238
     24 H          16.4837    8.0064    9.9026 H       1  UNL1        0.0238
     25 C          14.6830    8.6263   11.8881 C.3     1  UNL1       -0.0560
     26 H          13.9012    7.9242   11.6046 H       1  UNL1        0.0238
     27 H          14.7368    9.3964   11.1227 H       1  UNL1        0.0238
     28 H          14.3983    9.0809   12.8338 H       1  UNL1        0.0238
     29 C          15.8530    6.7932   13.0823 C.3     1  UNL1       -0.0560
     30 H          15.0198    6.1403   12.8305 H       1  UNL1        0.0238
     31 H          15.6563    7.2464   14.0515 H       1  UNL1        0.0238
     32 H          16.7479    6.1829   13.1670 H       1  UNL1        0.0238
     33 C          17.8490   12.4992   13.1601 C.3     1  UNL1       -0.0090
     34 C          16.3706   12.9028   13.1094 C.3     1  UNL1       -0.0559
     35 H          16.2892   13.9695   13.3084 H       1  UNL1        0.0238
     36 H          15.7899   12.3756   13.8634 H       1  UNL1        0.0238
     37 H          15.9406   12.7156   12.1281 H       1  UNL1        0.0238
     38 C          18.3914   12.8721   14.5478 C.3     1  UNL1       -0.0559
     39 H          18.1739   13.9161   14.7646 H       1  UNL1        0.0238
     40 H          19.4710   12.7355   14.5830 H       1  UNL1        0.0238
     41 H          17.9250   12.2521   15.3130 H       1  UNL1        0.0238
     42 C          18.5985   13.2981   12.0870 C.3     1  UNL1       -0.0559
     43 H          18.4960   14.3649   12.2746 H       1  UNL1        0.0238
     44 H          18.1968   13.0748   11.1006 H       1  UNL1        0.0238
     45 H          19.6561   13.0465   12.1010 H       1  UNL1        0.0238
     46 C          24.2424    8.5757   13.7471 C.ar    1  UNL1        0.0794
     47 C          25.2371    7.6136   13.5933 C.ar    1  UNL1       -0.0332
     48 H          24.9680    6.6431   13.2159 H       1  UNL1        0.0640
     49 C          26.5563    7.8800   13.9124 C.ar    1  UNL1       -0.0397
     50 C          26.8588    9.1473   14.4034 C.ar    1  UNL1       -0.0506
     51 H          27.8843    9.3660   14.6426 H       1  UNL1        0.0625
     52 C          25.9083   10.1334   14.5915 C.ar    1  UNL1        0.0068
     53 C          24.5574    9.8608   14.2588 C.ar    1  UNL1        0.2035
     54 C          27.6735    6.8650   13.7209 C.3     1  UNL1       -0.0126
     55 C          27.1686    5.5163   13.1992 C.3     1  UNL1       -0.0560
     56 H          28.0080    4.8311   13.0980 H       1  UNL1        0.0238
     57 H          26.7053    5.6220   12.2211 H       1  UNL1        0.0238
     58 H          26.4552    5.0714   13.8893 H       1  UNL1        0.0238
     59 C          28.6765    7.4229   12.7013 C.3     1  UNL1       -0.0560
     60 H          29.4766    6.7060   12.5279 H       1  UNL1        0.0238
     61 H          29.1191    8.3505   13.0521 H       1  UNL1        0.0238
     62 H          28.1759    7.6208   11.7562 H       1  UNL1        0.0238
     63 C          28.3767    6.6202   15.0632 C.3     1  UNL1       -0.0560
     64 H          29.1714    5.8867   14.9431 H       1  UNL1        0.0238
     65 H          27.6663    6.2435   15.7960 H       1  UNL1        0.0238
     66 H          28.8147    7.5342   15.4531 H       1  UNL1        0.0238
     67 C          26.2843   11.5265   15.0878 C.3     1  UNL1       -0.0090
     68 C          25.4592   11.8823   16.3334 C.3     1  UNL1       -0.0559
     69 H          25.7772   12.8457   16.7267 H       1  UNL1        0.0238
     70 H          25.5978   11.1263   17.1060 H       1  UNL1        0.0238
     71 H          24.4041   11.9499   16.0766 H       1  UNL1        0.0238
     72 C          27.7670   11.6442   15.4593 C.3     1  UNL1       -0.0559
     73 H          27.9623   12.6508   15.8233 H       1  UNL1        0.0238
     74 H          28.4066   11.4748   14.5964 H       1  UNL1        0.0238
     75 H          28.0333   10.9439   16.2485 H       1  UNL1        0.0238
     76 C          25.9901   12.5348   13.9675 C.3     1  UNL1       -0.0559
     77 H          26.2426   13.5417   14.2931 H       1  UNL1        0.0238
     78 H          24.9324   12.5165   13.7035 H       1  UNL1        0.0238
     79 H          26.5756   12.2941   13.0818 H       1  UNL1        0.0238
@<TRIPOS>BOND
     1    24    21    1
     2    22    21    1
     3    21    23    1
     4    21    20    1
     5    44    42    1
     6    27    25    1
     7     7     6    1
     8    26    25    1
     9    62    59    1
    10    11     9    1
    11    25    20    1
    12    25    28    1
    13    20    15    1
    14    20    29    1
    15    42    45    1
    16    42    43    1
    17    42    33    1
    18    37    34    1
    19    57    55    1
    20    15    13   ar
    21    15    16   ar
    22    14    13    1
    23    60    59    1
    24    17    16    1
    25    13    12   ar
    26     6     9    1
    27     6     3    1
    28     6     8    1
    29    16    18   ar
    30    59    61    1
    31    59    54    1
    32     9    10    1
    33     9     4    1
    34    30    29    1
    35    12     3    1
    36    12    19   ar
    37    18    19   ar
    38    18    33    1
    39     3     5    1
    40    19     1    1
    41    79    76    1
    42    29    32    1
    43    29    31    1
    44    56    55    1
    45    34    33    1
    46    34    35    1
    47    34    36    1
    48    33    38    1
    49    55    54    1
    50    55    58    1
    51    48    47    1
    52     4     5    1
    53     4    46    1
    54    47    46   ar
    55    47    49   ar
    56    78    76    1
    57    54    49    1
    58    54    63    1
    59    46    53   ar
    60    49    50   ar
    61    76    77    1
    62    76    67    1
    63    53     2    1
    64    53    52   ar
    65    50    52   ar
    66    50    51    1
    67    38    40    1
    68    38    39    1
    69    38    41    1
    70    52    67    1
    71    74    72    1
    72    64    63    1
    73    63    66    1
    74    63    65    1
    75    67    72    1
    76    67    68    1
    77    72    73    1
    78    72    75    1
    79    71    68    1
    80    68    69    1
    81    68    70    1
