@<TRIPOS>MOLECULE
1,2,16
 37 38 0 0 0
SMALL
GASTEIGER

@<TRIPOS>ATOM
      1 S           6.3607    4.0678    1.2390 S.3     1  UNL1        0.0000
      2 S           6.4977    4.4028    4.4182 S.2     1  UNL1        0.0000
      3 S           7.9444    1.5580    1.4370 S.3     1  UNL1        0.0000
      4 S           7.8388    1.8786    4.7775 S.3     1  UNL1        0.0000
      5 SI          3.4355    4.8133    0.6507 Si      1  UNL1        0.0000
      6 C           7.0916    2.8299    2.2935 C.3     1  UNL1        0.0000
      7 C           7.1276    3.0163    3.6331 C.2     1  UNL1        0.0000
      8 C           6.6091    0.2805    1.2494 C.3     1  UNL1        0.0000
      9 C           7.2545    0.2330    4.1717 C.3     1  UNL1        0.0000
     10 C           5.5574    0.3847    2.3038 C.ar    1  UNL1        0.0000
     11 C           5.8558    0.3482    3.6684 C.ar    1  UNL1        0.0000
     12 C           4.8281    0.4876    4.5952 C.ar    1  UNL1        0.0000
     13 C           3.5175    0.6470    4.1906 C.ar    1  UNL1        0.0000
     14 C           3.2176    0.6622    2.8394 C.ar    1  UNL1        0.0000
     15 C           4.2324    0.5340    1.9099 C.ar    1  UNL1        0.0000
     16 C           4.7857    4.4323    1.9438 C.3     1  UNL1        0.0000
     17 C           4.0757    5.9419   -0.7484 C.3     1  UNL1        0.0000
     18 C           1.9406    5.5625    1.5644 C.3     1  UNL1        0.0000
     19 C           2.9274    3.1580   -0.1555 C.3     1  UNL1        0.0000
     20 H           7.9593   -0.1328    3.4306 H       1  UNL1        0.0000
     21 H           7.3046   -0.3888    5.0652 H       1  UNL1        0.0000
     22 H           6.1775    0.4121    0.2577 H       1  UNL1        0.0000
     23 H           7.1357   -0.6742    1.2847 H       1  UNL1        0.0000
     24 H           3.9994    0.5461    0.8554 H       1  UNL1        0.0000
     25 H           2.1956    0.7782    2.5103 H       1  UNL1        0.0000
     26 H           2.7348    0.7601    4.9251 H       1  UNL1        0.0000
     27 H           5.0732    0.4824    5.6471 H       1  UNL1        0.0000
     28 H           4.4855    3.6414    2.6328 H       1  UNL1        0.0000
     29 H           4.0541    6.9910   -0.4752 H       1  UNL1        0.0000
     30 H           3.4625    5.8265   -1.6371 H       1  UNL1        0.0000
     31 H           5.0962    5.6878   -1.0203 H       1  UNL1        0.0000
     32 H           1.4663    4.8233    2.2020 H       1  UNL1        0.0000
     33 H           1.1955    5.9130    0.8579 H       1  UNL1        0.0000
     34 H           2.2228    6.3987    2.1949 H       1  UNL1        0.0000
     35 H           3.7752    2.6669   -0.6243 H       1  UNL1        0.0000
     36 H           2.1781    3.3234   -0.9233 H       1  UNL1        0.0000
     37 H           2.5041    2.4760    0.5738 H       1  UNL1        0.0000
@<TRIPOS>BOND
     1    30    17    1
     2    31    17    1
     3    36    19    1
     4    17    29    1
     5    17     5    1
     6    35    19    1
     7    19    37    1
     8    19     5    1
     9    22     8    1
    10     5    18    1
    11     5    16    1
    12    24    15    1
    13    33    18    1
    14     1    16    1
    15     1     6    1
    16     8    23    1
    17     8     3    1
    18     8    10    1
    19     3     6    1
    20    18    34    1
    21    18    32    1
    22    15    10   ar
    23    15    14   ar
    24    16    28    1
    25     6     7    1
    26    10    11   ar
    27    25    14    1
    28    14    13   ar
    29    20     9    1
    30     7     2    2
    31     7     4    1
    32    11     9    1
    33    11    12   ar
    34     9     4    1
    35     9    21    1
    36    13    12   ar
    37    13    26    1
    38    12    27    1
