@<TRIPOS>MOLECULE
1,2,14
 33 32 0 0 0
SMALL
GASTEIGER

@<TRIPOS>ATOM
      1 S          -0.7539    0.2754    3.3132 S.2     1  UNL1        0.0000
      2 S           2.0811    1.3579    2.1358 S.3     1  UNL1        0.0000
      3 SI          2.6189    3.8890    3.7040 Si      1  UNL1        0.0000
      4 O           0.0417   -2.9853    3.2227 O.2     1  UNL1        0.0000
      5 O           0.9133   -2.1116    5.1040 O.3     1  UNL1        0.0000
      6 O           3.0204   -2.2943    3.1818 O.2     1  UNL1        0.0000
      7 O           4.0846   -0.5551    2.2185 O.3     1  UNL1        0.0000
      8 C           0.6495   -0.6752    3.2881 C.2     1  UNL1        0.0000
      9 C           1.8550   -0.2801    2.7898 C.3     1  UNL1        0.0000
     10 C           0.5098   -2.0697    3.8384 C.2     1  UNL1        0.0000
     11 C           0.9171   -3.4017    5.7035 C.3     1  UNL1        0.0000
     12 C           3.0072   -1.1576    2.7619 C.2     1  UNL1        0.0000
     13 C           5.2550   -1.3513    2.1403 C.3     1  UNL1        0.0000
     14 C           1.4924    2.3776    3.4760 C.3     1  UNL1        0.0000
     15 C           3.0644    4.6346    2.0003 C.3     1  UNL1        0.0000
     16 C           4.2190    3.2514    4.5271 C.3     1  UNL1        0.0000
     17 C           1.7406    5.1626    4.8190 C.3     1  UNL1        0.0000
     18 H          -0.0566   -3.8799    5.5800 H       1  UNL1        0.0000
     19 H           1.1434   -3.2476    6.7554 H       1  UNL1        0.0000
     20 H           1.6831   -4.0165    5.2277 H       1  UNL1        0.0000
     21 H           5.0579   -2.2621    1.5709 H       1  UNL1        0.0000
     22 H           5.5916   -1.6307    3.1412 H       1  UNL1        0.0000
     23 H           6.0031   -0.7407    1.6412 H       1  UNL1        0.0000
     24 H           1.4377    1.7634    4.3812 H       1  UNL1        0.0000
     25 H           2.9786    3.8810    1.2215 H       1  UNL1        0.0000
     26 H           4.0877    4.9964    1.9933 H       1  UNL1        0.0000
     27 H           2.4261    5.4707    1.7345 H       1  UNL1        0.0000
     28 H           4.6997    2.4967    3.9109 H       1  UNL1        0.0000
     29 H           4.0140    2.8045    5.4952 H       1  UNL1        0.0000
     30 H           4.9295    4.0568    4.6822 H       1  UNL1        0.0000
     31 H           0.7547    5.4203    4.4464 H       1  UNL1        0.0000
     32 H           2.3220    6.0757    4.8892 H       1  UNL1        0.0000
     33 H           1.6155    4.7749    5.8245 H       1  UNL1        0.0000
@<TRIPOS>BOND
     1    25    15    1
     2    21    13    1
     3    23    13    1
     4    27    15    1
     5    26    15    1
     6    15     3    1
     7     2     9    1
     8     2    14    1
     9    13     7    1
    10    13    22    1
    11     7    12    1
    12    12     9    1
    13    12     6    2
    14     9     8    1
    15     4    10    2
    16     8     1    2
    17     8    10    1
    18    14     3    1
    19    14    24    1
    20     3    16    1
    21     3    17    1
    22    10     5    1
    23    28    16    1
    24    31    17    1
    25    16    30    1
    26    16    29    1
    27    17    32    1
    28    17    33    1
    29     5    11    1
    30    20    11    1
    31    18    11    1
    32    11    19    1
