@<TRIPOS>MOLECULE
1,2,5
 49 52 0 0 0
SMALL
GASTEIGER

@<TRIPOS>ATOM
      1 S          -0.0448    3.0150    9.8479 S.3     1  UNL1       -0.0561
      2 S          -0.9354    5.4863   12.7346 S.3     1  UNL1       -0.0561
      3 P           0.2914    4.9275    9.3366 P.3     1  UNL1        0.0062
      4 P           0.2519    6.6233   11.5817 P.3     1  UNL1        0.0062
      5 C           1.3183    5.7906   10.4769 C.3     1  UNL1        0.0709
      6 C          -1.2905    5.6881    8.8650 C.ar    1  UNL1       -0.0122
      7 C          -1.2834    6.7620    7.9820 C.ar    1  UNL1       -0.0534
      8 H          -0.3474    7.0900    7.5491 H       1  UNL1        0.0624
      9 C          -2.4707    7.3945    7.6698 C.ar    1  UNL1       -0.0611
     10 H          -2.4707    8.2281    6.9826 H       1  UNL1        0.0618
     11 C          -3.6583    6.9619    8.2389 C.ar    1  UNL1       -0.0617
     12 H          -4.5846    7.4596    7.9916 H       1  UNL1        0.0618
     13 C          -3.6616    5.8950    9.1218 C.ar    1  UNL1       -0.0611
     14 H          -4.5875    5.5600    9.5658 H       1  UNL1        0.0618
     15 C          -2.4774    5.2554    9.4388 C.ar    1  UNL1       -0.0534
     16 H          -2.4626    4.4170   10.1232 H       1  UNL1        0.0624
     17 C           1.1884    4.8953    7.7567 C.ar    1  UNL1       -0.0122
     18 C           2.3654    5.6116    7.5973 C.ar    1  UNL1       -0.0534
     19 H           2.7359    6.2010    8.4269 H       1  UNL1        0.0624
     20 C           3.0356    5.5619    6.3881 C.ar    1  UNL1       -0.0611
     21 H           3.9544    6.1153    6.2570 H       1  UNL1        0.0618
     22 C           2.5284    4.8036    5.3455 C.ar    1  UNL1       -0.0617
     23 H           3.0535    4.7662    4.4020 H       1  UNL1        0.0618
     24 C           1.3502    4.0898    5.5069 C.ar    1  UNL1       -0.0611
     25 H           0.9593    3.4989    4.6914 H       1  UNL1        0.0618
     26 C           0.6784    4.1328    6.7133 C.ar    1  UNL1       -0.0534
     27 H          -0.2356    3.5738    6.8692 H       1  UNL1        0.0624
     28 C           1.3881    7.5033   12.7047 C.ar    1  UNL1       -0.0122
     29 C           2.7337    7.1559   12.7503 C.ar    1  UNL1       -0.0534
     30 H           3.1145    6.3698   12.0918 H       1  UNL1        0.0624
     31 C           3.5787    7.8209   13.6218 C.ar    1  UNL1       -0.0611
     32 H           4.6283    7.5677   13.6503 H       1  UNL1        0.0618
     33 C           3.0810    8.8116   14.4544 C.ar    1  UNL1       -0.0617
     34 H           3.7438    9.3260   15.1347 H       1  UNL1        0.0618
     35 C           1.7353    9.1425   14.4204 C.ar    1  UNL1       -0.0611
     36 H           1.3492    9.9103   15.0747 H       1  UNL1        0.0618
     37 C           0.8869    8.4912   13.5445 C.ar    1  UNL1       -0.0534
     38 H          -0.1674    8.7351   13.5029 H       1  UNL1        0.0624
     39 C          -0.7237    7.9916   10.8929 C.ar    1  UNL1       -0.0122
     40 C          -2.0815    8.1450   11.1240 C.ar    1  UNL1       -0.0534
     41 H          -2.5986    7.4315   11.7508 H       1  UNL1        0.0624
     42 C          -2.7496    9.2111   10.5485 C.ar    1  UNL1       -0.0611
     43 H          -3.8080    9.3375   10.7235 H       1  UNL1        0.0618
     44 C          -2.0648   10.1126    9.7514 C.ar    1  UNL1       -0.0617
     45 H          -2.5918   10.9428    9.3039 H       1  UNL1        0.0618
     46 C          -0.7054    9.9566    9.5243 C.ar    1  UNL1       -0.0611
     47 H          -0.1755   10.6637    8.9026 H       1  UNL1        0.0618
     48 C          -0.0318    8.8949   10.0937 C.ar    1  UNL1       -0.0534
     49 H           1.0280    8.7428    9.9304 H       1  UNL1        0.0624
@<TRIPOS>BOND
     1    23    22    1
     2    25    24    1
     3    22    24   ar
     4    22    20   ar
     5    24    26   ar
     6    21    20    1
     7    20    18   ar
     8    26    27    1
     9    26    17   ar
    10    10     9    1
    11     8     7    1
    12    18    17   ar
    13    18    19    1
    14     9     7   ar
    15     9    11   ar
    16    17     3    1
    17     7     6   ar
    18    12    11    1
    19    11    13   ar
    20     6     3    1
    21     6    15   ar
    22    47    46    1
    23    13    15   ar
    24    13    14    1
    25    45    44    1
    26     3     1    1
    27     3     5    1
    28    15    16    1
    29    46    44   ar
    30    46    48   ar
    31    44    42   ar
    32    49    48    1
    33    48    39   ar
    34     5     4    1
    35    42    43    1
    36    42    40   ar
    37    39    40   ar
    38    39     4    1
    39    40    41    1
    40     4    28    1
    41     4     2    1
    42    30    29    1
    43    28    29   ar
    44    28    37   ar
    45    29    31   ar
    46    38    37    1
    47    37    35   ar
    48    31    32    1
    49    31    33   ar
    50    35    33   ar
    51    35    36    1
    52    33    34    1
