@<TRIPOS>MOLECULE
2,3,6
 39 38 0 0 0
SMALL
GASTEIGER

@<TRIPOS>ATOM
      1 CL          3.0164    5.1288    4.1802 Cl      1  UNL1        0.0000
      2 SI          2.1806    4.0126    5.6966 Si      1  UNL1        0.0000
      3 SI          2.2418    1.5748    7.2087 Si      1  UNL1        0.0000
      4 SI          3.7409    4.3226    8.3263 Si      1  UNL1        0.0000
      5 SI          5.1051    2.6723    5.9520 Si      1  UNL1        0.0000
      6 C           0.4733    3.9300    6.4157 C.3     1  UNL1        0.0000
      7 C           1.9779    1.2723    9.1002 C.3     1  UNL1        0.0000
      8 H           2.8953    1.4458    9.6506 H       1  UNL1        0.0000
      9 H           1.6832    0.2414    9.2730 H       1  UNL1        0.0000
     10 H           1.2112    1.9115    9.5174 H       1  UNL1        0.0000
     11 C           3.0756   -0.1117    6.7364 C.3     1  UNL1        0.0000
     12 H           3.8683   -0.3425    7.4372 H       1  UNL1        0.0000
     13 H           3.5013   -0.1214    5.7416 H       1  UNL1        0.0000
     14 H           2.3507   -0.9187    6.7938 H       1  UNL1        0.0000
     15 C           3.4769    3.1368    6.8418 C.3     1  UNL1        0.0000
     16 C           2.1199    4.5989    9.2974 C.3     1  UNL1        0.0000
     17 H           2.0417    5.6279    9.6341 H       1  UNL1        0.0000
     18 H           2.0562    3.9682   10.1760 H       1  UNL1        0.0000
     19 H           1.2582    4.3913    8.6689 H       1  UNL1        0.0000
     20 C           5.1025    3.7179    9.5215 C.3     1  UNL1        0.0000
     21 H           5.1943    4.3917   10.3678 H       1  UNL1        0.0000
     22 H           6.0689    3.6702    9.0323 H       1  UNL1        0.0000
     23 H           4.8844    2.7310    9.9148 H       1  UNL1        0.0000
     24 C           4.2284    6.0755    7.7370 C.3     1  UNL1        0.0000
     25 H           5.1731    6.0936    7.2083 H       1  UNL1        0.0000
     26 H           4.3162    6.7552    8.5799 H       1  UNL1        0.0000
     27 H           3.4716    6.4801    7.0722 H       1  UNL1        0.0000
     28 C           6.1182    1.3817    6.9359 C.3     1  UNL1        0.0000
     29 H           7.1631    1.6704    6.9920 H       1  UNL1        0.0000
     30 H           6.0770    0.4013    6.4744 H       1  UNL1        0.0000
     31 H           5.7520    1.2825    7.9503 H       1  UNL1        0.0000
     32 C           6.2968    4.1307    5.6220 C.3     1  UNL1        0.0000
     33 H           6.7300    4.5075    6.5426 H       1  UNL1        0.0000
     34 H           5.7961    4.9544    5.1257 H       1  UNL1        0.0000
     35 H           7.1166    3.8159    4.9815 H       1  UNL1        0.0000
     36 C           4.7128    1.9662    4.2122 C.3     1  UNL1        0.0000
     37 H           3.7567    1.4538    4.2022 H       1  UNL1        0.0000
     38 H           5.4730    1.2624    3.8849 H       1  UNL1        0.0000
     39 H           4.6659    2.7616    3.4756 H       1  UNL1        0.0000
@<TRIPOS>BOND
     1    39    36    1
     2    38    36    1
     3     1     2    1
     4    37    36    1
     5    36     5    1
     6    35    32    1
     7    34    32    1
     8    32     5    1
     9    32    33    1
    10     2     6    1
    11     2    15    1
    12    13    11    1
    13     5    15    1
    14     5    28    1
    15    30    28    1
    16    11    14    1
    17    11     3    1
    18    11    12    1
    19    15     3    1
    20    15     4    1
    21    28    29    1
    22    28    31    1
    23    27    24    1
    24    25    24    1
    25     3     7    1
    26    24     4    1
    27    24    26    1
    28     4    16    1
    29     4    20    1
    30    19    16    1
    31    22    20    1
    32     7     9    1
    33     7    10    1
    34     7     8    1
    35    16    17    1
    36    16    18    1
    37    20    23    1
    38    20    21    1
