@<TRIPOS>MOLECULE
1,2,4
 30 30 0 0 0
SMALL
GASTEIGER

@<TRIPOS>ATOM
      1 SI         11.0093   15.8895    2.5858 Si      1  UNL1        0.0000
      2 SI         12.5771   17.8273    4.5186 Si      1  UNL1        0.0000
      3 O          11.2678   15.5170    5.6305 O.2     1  UNL1        0.0000
      4 C          11.9936   15.8082    4.7550 C.2     1  UNL1        0.0000
      5 C          10.0501   17.3467    3.3755 C.ar    1  UNL1        0.0000
      6 C           8.7017   17.5605    3.1303 C.ar    1  UNL1        0.0000
      7 C           8.0089   18.5752    3.7692 C.ar    1  UNL1        0.0000
      8 C           8.6653   19.3925    4.6726 C.ar    1  UNL1        0.0000
      9 C          10.0128   19.1951    4.9234 C.ar    1  UNL1        0.0000
     10 C          10.7159   18.1829    4.2833 C.ar    1  UNL1        0.0000
     11 C           9.9288   14.3203    2.6967 C.3     1  UNL1        0.0000
     12 C          11.1829   16.3234    0.7210 C.3     1  UNL1        0.0000
     13 C          13.2892   18.6068    6.1010 C.3     1  UNL1        0.0000
     14 C          13.2598   18.5156    2.8588 C.3     1  UNL1        0.0000
     15 H           8.1835   16.9185    2.4325 H       1  UNL1        0.0000
     16 H           6.9575   18.7243    3.5682 H       1  UNL1        0.0000
     17 H           8.1290   20.1808    5.1814 H       1  UNL1        0.0000
     18 H          10.5245   19.8333    5.6300 H       1  UNL1        0.0000
     19 H          10.4630   13.4640    2.3008 H       1  UNL1        0.0000
     20 H           9.0147   14.4309    2.1233 H       1  UNL1        0.0000
     21 H           9.6551   14.0993    3.7219 H       1  UNL1        0.0000
     22 H          11.8065   17.1910    0.5359 H       1  UNL1        0.0000
     23 H          10.2052   16.5273    0.2991 H       1  UNL1        0.0000
     24 H          11.6065   15.4871    0.1787 H       1  UNL1        0.0000
     25 H          13.2404   19.6882    6.0519 H       1  UNL1        0.0000
     26 H          14.3234   18.3241    6.2507 H       1  UNL1        0.0000
     27 H          12.7235   18.2807    6.9655 H       1  UNL1        0.0000
     28 H          13.3477   17.6905    2.1387 H       1  UNL1        0.0000
     29 H          14.2293   18.9828    2.9550 H       1  UNL1        0.0000
     30 H          12.5716   19.2364    2.4322 H       1  UNL1        0.0000
@<TRIPOS>BOND
     1    24    12    1
     2    23    12    1
     3    22    12    1
     4    12     1    1
     5    20    11    1
     6    28    14    1
     7    19    11    1
     8    30    14    1
     9    15     6    1
    10     1    11    1
    11     1     5    1
    12    11    21    1
    13    14    29    1
    14    14     2    1
    15     6     5   ar
    16     6     7   ar
    17     5    10   ar
    18    16     7    1
    19     7     8   ar
    20    10     2    1
    21    10     9   ar
    22     2     4    1
    23     2    13    1
    24     8     9   ar
    25     8    17    1
    26     4     3    2
    27     9    18    1
    28    25    13    1
    29    13    26    1
    30    13    27    1
