@<TRIPOS>MOLECULE
1,2,6
 60 64 0 0 0
SMALL
GASTEIGER

@<TRIPOS>ATOM
      1 SI          2.1552    3.7433    2.3737 Si      1  UNL1        0.0000
      2 SI          0.2269    1.7984    4.5973 Si      1  UNL1        0.0000
      3 O           0.0993    4.6301    3.4963 O.3     1  UNL1        0.0000
      4 N           3.8315    3.3017    1.7094 N.pl3   1  UNL1        0.0000
      5 N           7.1064    1.1149    0.4873 N.pl3   1  UNL1        0.0000
      6 C           4.1113    2.1534    2.3647 C.3     1  UNL1        0.0000
      7 C           5.1957    1.4100    1.9372 C.2     1  UNL1        0.0000
      8 H           5.3810    0.4682    2.4258 H       1  UNL1        0.0000
      9 C           6.0275    1.8358    0.8872 C.2     1  UNL1        0.0000
     10 C           5.6902    3.0654    0.2736 C.2     1  UNL1        0.0000
     11 H           6.2668    3.4659   -0.5422 H       1  UNL1        0.0000
     12 C           4.5828    3.7422    0.7048 C.2     1  UNL1        0.0000
     13 H           4.2728    4.6679    0.2411 H       1  UNL1        0.0000
     14 C           7.3497   -0.1942    1.0472 C.3     1  UNL1        0.0000
     15 H           7.5414   -0.1271    2.1212 H       1  UNL1        0.0000
     16 H           8.2233   -0.6352    0.5741 H       1  UNL1        0.0000
     17 H           6.4969   -0.8602    0.8872 H       1  UNL1        0.0000
     18 C           7.9090    1.5509   -0.6305 C.3     1  UNL1        0.0000
     19 H           7.3327    1.5616   -1.5616 H       1  UNL1        0.0000
     20 H           8.7514    0.8756   -0.7576 H       1  UNL1        0.0000
     21 H           8.3057    2.5533   -0.4525 H       1  UNL1        0.0000
     22 C           1.1878    3.5353    0.7095 C.3     1  UNL1        0.0000
     23 H           1.6157    4.1460   -0.0825 H       1  UNL1        0.0000
     24 H           0.1569    3.8419    0.8396 H       1  UNL1        0.0000
     25 H           1.1903    2.5008    0.3805 H       1  UNL1        0.0000
     26 C           1.9817    5.6236    2.6019 C.ar    1  UNL1        0.0000
     27 C           2.7444    6.7496    2.3497 C.ar    1  UNL1        0.0000
     28 H           3.6991    6.6602    1.8493 H       1  UNL1        0.0000
     29 C           2.2933    7.9951    2.7618 C.ar    1  UNL1        0.0000
     30 H           2.8923    8.8738    2.5682 H       1  UNL1        0.0000
     31 C           1.0848    8.1328    3.4253 C.ar    1  UNL1        0.0000
     32 H           0.7710    9.1168    3.7361 H       1  UNL1        0.0000
     33 C           0.2878    7.0245    3.6863 C.ar    1  UNL1        0.0000
     34 C           0.7664    5.7974    3.2556 C.ar    1  UNL1        0.0000
     35 C          -1.0735    7.0325    4.3547 C.3     1  UNL1        0.0000
     36 C          -1.2994    8.2942    5.1870 C.3     1  UNL1        0.0000
     37 H          -0.5703    8.3629    5.9919 H       1  UNL1        0.0000
     38 H          -2.2992    8.2958    5.6130 H       1  UNL1        0.0000
     39 H          -1.2156    9.1772    4.5584 H       1  UNL1        0.0000
     40 C          -2.1410    6.9661    3.2440 C.3     1  UNL1        0.0000
     41 H          -2.0706    7.8424    2.6020 H       1  UNL1        0.0000
     42 H          -3.1356    6.9283    3.6841 H       1  UNL1        0.0000
     43 H          -2.0012    6.0771    2.6327 H       1  UNL1        0.0000
     44 C          -0.6134    4.5851    4.6756 C.ar    1  UNL1        0.0000
     45 C          -1.1853    5.7556    5.1778 C.ar    1  UNL1        0.0000
     46 C          -1.8768    5.6715    6.3780 C.ar    1  UNL1        0.0000
     47 H          -2.3348    6.5473    6.8090 H       1  UNL1        0.0000
     48 C          -1.9984    4.4575    7.0307 C.ar    1  UNL1        0.0000
     49 H          -2.5522    4.4049    7.9574 H       1  UNL1        0.0000
     50 C          -1.4141    3.3190    6.5055 C.ar    1  UNL1        0.0000
     51 H          -1.5112    2.3831    7.0320 H       1  UNL1        0.0000
     52 C          -0.6871    3.3510    5.3219 C.ar    1  UNL1        0.0000
     53 C          -0.2912    0.3404    5.7710 C.3     1  UNL1        0.0000
     54 H          -1.3702    0.2223    5.8039 H       1  UNL1        0.0000
     55 H           0.0563    0.4581    6.7925 H       1  UNL1        0.0000
     56 H           0.1256   -0.5885    5.3939 H       1  UNL1        0.0000
     57 C          -0.9522    1.4736    3.0953 C.3     1  UNL1        0.0000
     58 H          -0.6419    0.5956    2.5385 H       1  UNL1        0.0000
     59 H          -0.9484    2.3143    2.4121 H       1  UNL1        0.0000
     60 H          -1.9759    1.3176    3.4242 H       1  UNL1        0.0000
@<TRIPOS>BOND
     1    19    18    1
     2    20    18    1
     3    18    21    1
     4    18     5    1
     5    11    10    1
     6    23    22    1
     7    13    12    1
     8    10    12    2
     9    10     9    1
    10    25    22    1
    11     5     9    1
    12     5    14    1
    13    16    14    1
    14    12     4    1
    15    22    24    1
    16    22     1    1
    17     9     7    2
    18    17    14    1
    19    14    15    1
    20     4     6    1
    21     4     1    1
    22    28    27    1
    23     7     6    1
    24     7     8    1
    25    27    26   ar
    26    27    29   ar
    27     1    26    1
    28    59    57    1
    29    58    57    1
    30    30    29    1
    31    26    34   ar
    32    41    40    1
    33    43    40    1
    34    29    31   ar
    35    57    60    1
    36    57     2    1
    37    40    42    1
    38    40    35    1
    39    34     3    1
    40    34    33   ar
    41    31    33   ar
    42    31    32    1
    43     3    44    1
    44    33    35    1
    45    35    45    1
    46    35    36    1
    47    39    36    1
    48     2    52    1
    49     2    53    1
    50    44    45   ar
    51    44    52   ar
    52    45    46   ar
    53    36    38    1
    54    36    37    1
    55    52    50   ar
    56    56    53    1
    57    53    54    1
    58    53    55    1
    59    46    47    1
    60    46    48   ar
    61    50    48   ar
    62    50    51    1
    63    48    49    1
    64     1     3    0
