@<TRIPOS>MOLECULE
2,3,22,46
 71 73 0 0 0
SMALL
GASTEIGER

@<TRIPOS>ATOM
      1 SI          2.8393    7.2358    2.1722 Si      1  UNL1        0.0000
      2 O           4.0478    3.3962    0.6871 O.3     1  UNL1        0.0000
      3 O           4.2702    3.6933    4.1300 O.3     1  UNL1        0.0000
      4 H           0.8273    5.1075    2.4770 H       1  UNL1        0.0000
      5 C           3.1570    3.2871   -0.2787 C.ar    1  UNL1        0.0000
      6 C           3.4416    3.5714   -1.6325 C.ar    1  UNL1        0.0000
      7 C           2.4034    3.4667   -2.5470 C.ar    1  UNL1        0.0000
      8 H           2.5777    3.6920   -3.5860 H       1  UNL1        0.0000
      9 C           1.1286    3.0725   -2.1739 C.ar    1  UNL1        0.0000
     10 H           0.3479    3.0093   -2.9170 H       1  UNL1        0.0000
     11 C           0.8652    2.7396   -0.8602 C.ar    1  UNL1        0.0000
     12 H          -0.1180    2.4056   -0.5611 H       1  UNL1        0.0000
     13 C           1.8665    2.8465    0.0919 C.ar    1  UNL1        0.0000
     14 C           1.6701    2.3627    1.4739 C.2     1  UNL1        0.0000
     15 C           1.3081    1.0284    1.6405 C.2     1  UNL1        0.0000
     16 H           1.1461    0.4177    0.7624 H       1  UNL1        0.0000
     17 C           1.1422    0.4910    2.9038 C.2     1  UNL1        0.0000
     18 H           0.8272   -0.5354    3.0237 H       1  UNL1        0.0000
     19 C           1.4244    1.2697    4.0132 C.2     1  UNL1        0.0000
     20 H           1.3525    0.8487    5.0072 H       1  UNL1        0.0000
     21 C           1.8012    2.6025    3.8740 C.3     1  UNL1        0.0000
     22 C           1.8639    3.1961    2.5962 C.3     1  UNL1        0.0000
     23 C           2.1846    3.3295    5.1020 C.ar    1  UNL1        0.0000
     24 C           1.3236    3.4295    6.1828 C.ar    1  UNL1        0.0000
     25 H           0.3039    3.0863    6.0824 H       1  UNL1        0.0000
     26 C           1.7710    3.9751    7.3696 C.ar    1  UNL1        0.0000
     27 H           1.0997    4.0738    8.2095 H       1  UNL1        0.0000
     28 C           3.0917    4.3740    7.4938 C.ar    1  UNL1        0.0000
     29 H           3.4125    4.7661    8.4446 H       1  UNL1        0.0000
     30 C           3.9949    4.2785    6.4444 C.ar    1  UNL1        0.0000
     31 C           3.5204    3.7810    5.2103 C.ar    1  UNL1        0.0000
     32 C           4.8500    3.9825   -2.0441 C.3     1  UNL1        0.0000
     33 C           4.9995    4.1449   -3.5602 C.3     1  UNL1        0.0000
     34 H           4.3534    4.9335   -3.9380 H       1  UNL1        0.0000
     35 H           4.7729    3.2165   -4.0801 H       1  UNL1        0.0000
     36 H           6.0271    4.4190   -3.7907 H       1  UNL1        0.0000
     37 C           5.8517    2.9136   -1.5812 C.3     1  UNL1        0.0000
     38 H           5.8993    2.8864   -0.4924 H       1  UNL1        0.0000
     39 H           6.8458    3.1464   -1.9583 H       1  UNL1        0.0000
     40 H           5.5613    1.9322   -1.9550 H       1  UNL1        0.0000
     41 C           5.1860    5.3204   -1.3749 C.3     1  UNL1        0.0000
     42 H           5.0809    5.2434   -0.2927 H       1  UNL1        0.0000
     43 H           4.5161    6.0970   -1.7364 H       1  UNL1        0.0000
     44 H           6.2088    5.6097   -1.6100 H       1  UNL1        0.0000
     45 C           1.8300    4.6825    2.4536 C.2     1  UNL1        0.0000
     46 C           2.9708    5.3515    2.3186 C.2     1  UNL1        0.0000
     47 C           0.9998    7.7766    2.1425 C.3     1  UNL1        0.0000
     48 H           0.4902    7.5071    3.0627 H       1  UNL1        0.0000
     49 H           0.4627    7.3177    1.3179 H       1  UNL1        0.0000
     50 H           0.9135    8.8531    2.0273 H       1  UNL1        0.0000
     51 C           3.6071    8.1307    3.6808 C.3     1  UNL1        0.0000
     52 H           3.2535    7.6914    4.6088 H       1  UNL1        0.0000
     53 H           3.3254    9.1796    3.6857 H       1  UNL1        0.0000
     54 H           4.6903    8.0832    3.6837 H       1  UNL1        0.0000
     55 C           3.5955    7.9397    0.5624 C.3     1  UNL1        0.0000
     56 H           3.1068    7.5155   -0.3091 H       1  UNL1        0.0000
     57 H           4.6566    7.7370    0.4781 H       1  UNL1        0.0000
     58 H           3.4615    9.0167    0.5209 H       1  UNL1        0.0000
     59 C           5.4508    4.7076    6.5867 C.3     1  UNL1        0.0000
     60 C           5.8171    5.0873    8.0255 C.3     1  UNL1        0.0000
     61 H           5.6512    4.2556    8.7070 H       1  UNL1        0.0000
     62 H           5.2448    5.9471    8.3649 H       1  UNL1        0.0000
     63 H           6.8713    5.3540    8.0676 H       1  UNL1        0.0000
     64 C           6.3808    3.5643    6.1513 C.3     1  UNL1        0.0000
     65 H           6.1608    2.6599    6.7181 H       1  UNL1        0.0000
     66 H           7.4173    3.8403    6.3370 H       1  UNL1        0.0000
     67 H           6.2691    3.3622    5.0847 H       1  UNL1        0.0000
     68 C           5.6855    5.9247    5.6850 C.3     1  UNL1        0.0000
     69 H           5.0789    6.7622    6.0217 H       1  UNL1        0.0000
     70 H           5.4179    5.6885    4.6558 H       1  UNL1        0.0000
     71 H           6.7323    6.2210    5.7187 H       1  UNL1        0.0000
@<TRIPOS>BOND
     1    35    33    1
     2    34    33    1
     3    36    33    1
     4     8     7    1
     5    33    32    1
     6    10     9    1
     7     7     9   ar
     8     7     6   ar
     9     9    11   ar
    10    32     6    1
    11    32    37    1
    12    32    41    1
    13    39    37    1
    14    40    37    1
    15    43    41    1
    16     6     5   ar
    17    44    41    1
    18    37    38    1
    19    41    42    1
    20    11    12    1
    21    11    13   ar
    22    56    55    1
    23     5    13   ar
    24     5     2    1
    25    13    14    1
    26    57    55    1
    27    58    55    1
    28    55     1    1
    29    16    15    1
    30    49    47    1
    31    14    15    2
    32    14    22    1
    33    15    17    1
    34    50    47    1
    35    47     1    1
    36    47    48    1
    37     1    46    1
    38     1    51    1
    39    46    45    2
    40    45     4    1
    41    45    22    1
    42    22    21    1
    43    17    18    1
    44    17    19    2
    45    51    54    1
    46    51    53    1
    47    51    52    1
    48    21    19    1
    49    21    23    1
    50    19    20    1
    51     3    31    1
    52    70    68    1
    53    67    64    1
    54    23    31   ar
    55    23    24   ar
    56    31    30   ar
    57    68    71    1
    58    68    69    1
    59    68    59    1
    60    25    24    1
    61    64    66    1
    62    64    59    1
    63    64    65    1
    64    24    26   ar
    65    30    59    1
    66    30    28   ar
    67    59    60    1
    68    26    28   ar
    69    26    27    1
    70    28    29    1
    71    60    63    1
    72    60    62    1
    73    60    61    1
