@<TRIPOS>MOLECULE
7,8,21,56
 80 79 0 0 0
SMALL
GASTEIGER

@<TRIPOS>ATOM
      1 SI         -1.0950    6.7578    6.1815 Si      1  UNL1        0.0000
      2 SI         -3.6355    5.7519    4.6565 Si      1  UNL1        0.0000
      3 SI         -3.8937    8.2284    6.6117 Si      1  UNL1        0.0000
      4 SI         -2.4430   11.8777    5.7068 Si      1  UNL1        0.0000
      5 SI         -2.7212   12.1572    2.5121 Si      1  UNL1        0.0000
      6 SI          0.0537   11.6020    3.8553 Si      1  UNL1        0.0000
      7 O          -0.0685    7.7608    5.2406 O.3     1  UNL1        0.0000
      8 O           0.4180   10.2266    2.9062 O.3     1  UNL1        0.0000
      9 C           1.3018    7.8720    5.5293 C.3     1  UNL1        0.0000
     10 H           1.4532    8.3363    6.5064 H       1  UNL1        0.0000
     11 H           1.7701    8.4922    4.7653 H       1  UNL1        0.0000
     12 H           1.7835    6.8906    5.5368 H       1  UNL1        0.0000
     13 C          -0.7081    7.1171    8.0215 C.3     1  UNL1        0.0000
     14 H           0.2286    6.6615    8.3315 H       1  UNL1        0.0000
     15 H          -1.4882    6.7164    8.6575 H       1  UNL1        0.0000
     16 H          -0.6396    8.1799    8.2227 H       1  UNL1        0.0000
     17 C          -0.4274    4.9796    5.9163 C.3     1  UNL1        0.0000
     18 H          -0.4350    4.6971    4.8700 H       1  UNL1        0.0000
     19 H          -1.0345    4.2609    6.4515 H       1  UNL1        0.0000
     20 H           0.5923    4.8735    6.2793 H       1  UNL1        0.0000
     21 C          -2.7576    7.2447    5.4491 C.3     1  UNL1        0.0000
     22 C          -5.3891    6.0775    3.9620 C.3     1  UNL1        0.0000
     23 H          -6.1205    6.1369    4.7594 H       1  UNL1        0.0000
     24 H          -5.6868    5.2586    3.3140 H       1  UNL1        0.0000
     25 H          -5.4562    6.9879    3.3778 H       1  UNL1        0.0000
     26 C          -3.8527    4.2747    5.8653 C.3     1  UNL1        0.0000
     27 H          -3.2877    3.4031    5.5536 H       1  UNL1        0.0000
     28 H          -4.8926    3.9752    5.9356 H       1  UNL1        0.0000
     29 H          -3.5224    4.5427    6.8618 H       1  UNL1        0.0000
     30 C          -2.6196    5.1107    3.1503 C.3     1  UNL1        0.0000
     31 H          -1.8282    5.8113    2.8908 H       1  UNL1        0.0000
     32 H          -3.2494    4.9861    2.2747 H       1  UNL1        0.0000
     33 H          -2.1600    4.1489    3.3551 H       1  UNL1        0.0000
     34 C          -4.6783    7.1378    7.9816 C.3     1  UNL1        0.0000
     35 H          -5.2900    6.3549    7.5487 H       1  UNL1        0.0000
     36 H          -5.3116    7.7239    8.6401 H       1  UNL1        0.0000
     37 H          -3.9237    6.6584    8.5960 H       1  UNL1        0.0000
     38 C          -5.4001    8.9390    5.6581 C.3     1  UNL1        0.0000
     39 H          -5.1427    9.2779    4.6564 H       1  UNL1        0.0000
     40 H          -5.8377    9.7752    6.1922 H       1  UNL1        0.0000
     41 H          -6.1757    8.1908    5.5575 H       1  UNL1        0.0000
     42 C          -3.1113    9.6814    7.6090 C.3     1  UNL1        0.0000
     43 H          -3.9057   10.3650    7.9094 H       1  UNL1        0.0000
     44 H          -2.7383    9.2447    8.5376 H       1  UNL1        0.0000
     45 C          -1.9791   10.4891    6.9705 C.3     1  UNL1        0.0000
     46 H          -1.2760    9.7957    6.5012 H       1  UNL1        0.0000
     47 H          -1.4238   10.9797    7.7755 H       1  UNL1        0.0000
     48 C          -4.2991   12.3247    5.7847 C.3     1  UNL1        0.0000
     49 H          -4.4632   13.2864    5.3119 H       1  UNL1        0.0000
     50 H          -4.6315   12.4111    6.8140 H       1  UNL1        0.0000
     51 H          -4.9333   11.6041    5.2900 H       1  UNL1        0.0000
     52 C          -1.6151   13.4855    6.3538 C.3     1  UNL1        0.0000
     53 H          -0.5717   13.3340    6.6022 H       1  UNL1        0.0000
     54 H          -2.1124   13.8631    7.2421 H       1  UNL1        0.0000
     55 H          -1.6589   14.2634    5.5991 H       1  UNL1        0.0000
     56 C          -1.8073   11.3851    3.9917 C.3     1  UNL1        0.0000
     57 C          -4.5570   11.5971    2.4232 C.3     1  UNL1        0.0000
     58 H          -4.7275   10.6349    2.9020 H       1  UNL1        0.0000
     59 H          -4.8895   11.5062    1.3938 H       1  UNL1        0.0000
     60 H          -5.2028   12.3204    2.9074 H       1  UNL1        0.0000
     61 C          -2.7858   14.0708    2.5122 C.3     1  UNL1        0.0000
     62 H          -3.2576   14.4350    3.4177 H       1  UNL1        0.0000
     63 H          -3.3571   14.4476    1.6698 H       1  UNL1        0.0000
     64 H          -1.7956   14.5074    2.4620 H       1  UNL1        0.0000
     65 C          -1.8890   11.6358    0.8546 C.3     1  UNL1        0.0000
     66 H          -1.3393   12.4622    0.4151 H       1  UNL1        0.0000
     67 H          -2.6183   11.3096    0.1197 H       1  UNL1        0.0000
     68 H          -1.1855   10.8189    1.0039 H       1  UNL1        0.0000
     69 C           0.7592   13.1296    2.9419 C.3     1  UNL1        0.0000
     70 H           1.8456   13.1191    2.9061 H       1  UNL1        0.0000
     71 H           0.4609   14.0391    3.4503 H       1  UNL1        0.0000
     72 H           0.3948   13.1895    1.9228 H       1  UNL1        0.0000
     73 C           1.1658   11.4608    5.4120 C.3     1  UNL1        0.0000
     74 H           0.7163   10.8494    6.1843 H       1  UNL1        0.0000
     75 H           1.3531   12.4394    5.8385 H       1  UNL1        0.0000
     76 H           2.1331   11.0257    5.1722 H       1  UNL1        0.0000
     77 C           1.6465   10.1380    2.2315 C.3     1  UNL1        0.0000
     78 H           1.6444   10.7880    1.3526 H       1  UNL1        0.0000
     79 H           1.7961    9.1081    1.9144 H       1  UNL1        0.0000
     80 H           2.4776   10.4328    2.8763 H       1  UNL1        0.0000
@<TRIPOS>BOND
     1    67    65    1
     2    66    65    1
     3    65    68    1
     4    65     5    1
     5    78    77    1
     6    59    57    1
     7    63    61    1
     8    79    77    1
     9    72    69    1
    10    77    80    1
    11    77     8    1
    12    32    30    1
    13    57     5    1
    14    57    58    1
    15    57    60    1
    16    64    61    1
    17     5    61    1
    18     5    56    1
    19    61    62    1
    20    31    30    1
    21    70    69    1
    22     8     6    1
    23    69    71    1
    24    69     6    1
    25    30    33    1
    26    30     2    1
    27    24    22    1
    28    25    22    1
    29     6    56    1
    30     6    73    1
    31    22     2    1
    32    22    23    1
    33    56     4    1
    34    39    38    1
    35     2    21    1
    36     2    26    1
    37    11     9    1
    38    18    17    1
    39    76    73    1
    40     7     9    1
    41     7     1    1
    42    51    48    1
    43    49    48    1
    44    73    75    1
    45    73    74    1
    46    21     1    1
    47    21     3    1
    48     9    12    1
    49     9    10    1
    50    27    26    1
    51    41    38    1
    52    55    52    1
    53    38    40    1
    54    38     3    1
    55     4    48    1
    56     4    52    1
    57     4    45    1
    58    48    50    1
    59    26    28    1
    60    26    29    1
    61    17     1    1
    62    17    20    1
    63    17    19    1
    64     1    13    1
    65    52    53    1
    66    52    54    1
    67    46    45    1
    68     3    42    1
    69     3    34    1
    70    45    42    1
    71    45    47    1
    72    35    34    1
    73    42    43    1
    74    42    44    1
    75    34    37    1
    76    34    36    1
    77    13    16    1
    78    13    14    1
    79    13    15    1
