@<TRIPOS>MOLECULE
2,5,80
 80 79 0 0 0
SMALL
GASTEIGER

@<TRIPOS>ATOM
      1 SI          2.3536   13.4458    9.1771 Si      1  UNL1        0.0000
      2 P           3.2362   10.9943   12.7408 P.3     1  UNL1        0.0000
      3 P           1.0154   16.4849   12.8660 P.3     1  UNL1        0.0000
      4 N           0.6613   12.9913    9.1930 N.am    1  UNL1        0.0000
      5 N           2.8776   13.3518   10.8820 N.3     1  UNL1        0.0000
      6 O          -0.9676   11.7684   10.2155 O.2     1  UNL1        0.0000
      7 C          -0.2888   13.3135    8.0967 C.3     1  UNL1        0.0000
      8 C           0.3588   14.1963    7.0327 C.3     1  UNL1        0.0000
      9 H           1.2491   13.7335    6.6203 H       1  UNL1        0.0000
     10 H           0.6113   15.1723    7.4300 H       1  UNL1        0.0000
     11 H          -0.3529   14.3388    6.2222 H       1  UNL1        0.0000
     12 C          -1.4950   14.0750    8.6570 C.3     1  UNL1        0.0000
     13 H          -2.0301   13.4683    9.3796 H       1  UNL1        0.0000
     14 H          -2.1740   14.3328    7.8479 H       1  UNL1        0.0000
     15 H          -1.1648   14.9923    9.1402 H       1  UNL1        0.0000
     16 C          -0.7287   12.0140    7.4118 C.3     1  UNL1        0.0000
     17 H           0.1445   11.4709    7.0558 H       1  UNL1        0.0000
     18 H          -1.3719   12.2407    6.5651 H       1  UNL1        0.0000
     19 H          -1.2760   11.3791    8.1007 H       1  UNL1        0.0000
     20 C           3.3493   12.2287    8.0826 C.3     1  UNL1        0.0000
     21 H           3.3464   11.2170    8.4747 H       1  UNL1        0.0000
     22 H           4.3819   12.5405    7.9592 H       1  UNL1        0.0000
     23 H           2.9096   12.1792    7.0911 H       1  UNL1        0.0000
     24 C           2.8863   15.1874    8.5830 C.3     1  UNL1        0.0000
     25 H           2.2037   15.9848    8.8539 H       1  UNL1        0.0000
     26 H           3.0139   15.2157    7.5073 H       1  UNL1        0.0000
     27 H           3.8524   15.4260    9.0205 H       1  UNL1        0.0000
     28 C           4.2629   12.9284   11.0592 C.3     1  UNL1        0.0000
     29 H           4.9408   13.7875   10.9270 H       1  UNL1        0.0000
     30 H           4.4963   12.1979   10.2884 H       1  UNL1        0.0000
     31 C           4.5336   12.2818   12.4203 C.3     1  UNL1        0.0000
     32 H           4.5013   13.0250   13.2162 H       1  UNL1        0.0000
     33 H           5.5316   11.8389   12.4186 H       1  UNL1        0.0000
     34 C           4.1807    9.3966   12.4650 C.3     1  UNL1        0.0000
     35 H           3.4179    8.6126   12.5540 H       1  UNL1        0.0000
     36 C           4.7188    9.3593   11.0367 C.3     1  UNL1        0.0000
     37 H           5.0646    8.3562   10.7918 H       1  UNL1        0.0000
     38 H           5.5566   10.0434   10.9144 H       1  UNL1        0.0000
     39 H           3.9388    9.6301   10.3284 H       1  UNL1        0.0000
     40 C           5.3055    9.1109   13.4571 C.3     1  UNL1        0.0000
     41 H           5.8626    8.2363   13.1234 H       1  UNL1        0.0000
     42 H           4.9253    8.8990   14.4525 H       1  UNL1        0.0000
     43 H           6.0025    9.9446   13.5204 H       1  UNL1        0.0000
     44 C           3.1049   11.0396   14.6044 C.3     1  UNL1        0.0000
     45 H           4.1039   10.8826   15.0264 H       1  UNL1        0.0000
     46 C           2.5724   12.3807   15.1006 C.3     1  UNL1        0.0000
     47 H           2.3363   12.3131   16.1614 H       1  UNL1        0.0000
     48 H           1.6636   12.6544   14.5691 H       1  UNL1        0.0000
     49 H           3.2995   13.1803   14.9762 H       1  UNL1        0.0000
     50 C           2.1680    9.9143   15.0372 C.3     1  UNL1        0.0000
     51 H           2.0258    9.9286   16.1168 H       1  UNL1        0.0000
     52 H           2.5588    8.9382   14.7584 H       1  UNL1        0.0000
     53 H           1.1963   10.0384   14.5611 H       1  UNL1        0.0000
     54 C           2.6271   14.5400   11.7034 C.3     1  UNL1        0.0000
     55 H           3.3192   15.3414   11.4032 H       1  UNL1        0.0000
     56 H           2.8512   14.2933   12.7441 H       1  UNL1        0.0000
     57 C           1.1983   15.0587   11.6643 C.3     1  UNL1        0.0000
     58 H           0.5322   14.2546   11.9831 H       1  UNL1        0.0000
     59 H           0.9081   15.3673   10.6597 H       1  UNL1        0.0000
     60 C           0.9531   17.9183   11.6373 C.3     1  UNL1        0.0000
     61 H           0.3532   17.6279   10.7660 H       1  UNL1        0.0000
     62 C           0.3466   19.1619   12.2800 C.3     1  UNL1        0.0000
     63 H           0.4766   20.0223   11.6242 H       1  UNL1        0.0000
     64 H           0.8409   19.3777   13.2260 H       1  UNL1        0.0000
     65 H          -0.7175   19.0396   12.4648 H       1  UNL1        0.0000
     66 C           2.3775   18.2258   11.1811 C.3     1  UNL1        0.0000
     67 H           2.3805   19.0529   10.4718 H       1  UNL1        0.0000
     68 H           2.8343   17.3649   10.7000 H       1  UNL1        0.0000
     69 H           2.9910   18.5058   12.0359 H       1  UNL1        0.0000
     70 C          -0.8061   16.3246   13.3104 C.3     1  UNL1        0.0000
     71 H          -1.0560   17.2887   13.7711 H       1  UNL1        0.0000
     72 C          -1.7656   16.0619   12.1559 C.3     1  UNL1        0.0000
     73 H          -2.7900   16.0770   12.5266 H       1  UNL1        0.0000
     74 H          -1.5888   15.0849   11.7132 H       1  UNL1        0.0000
     75 H          -1.6803   16.8200   11.3804 H       1  UNL1        0.0000
     76 C          -0.9459   15.2542   14.3908 C.3     1  UNL1        0.0000
     77 H          -1.9498   15.2711   14.8118 H       1  UNL1        0.0000
     78 H          -0.2314   15.4263   15.1947 H       1  UNL1        0.0000
     79 H          -0.7736   14.2623   13.9832 H       1  UNL1        0.0000
     80 C           0.1908   12.1183   10.1739 C.2     1  UNL1        0.0000
@<TRIPOS>BOND
     1    11     8    1
     2    18    16    1
     3     9     8    1
     4     8    10    1
     5     8     7    1
     6    17    16    1
     7    23    20    1
     8    16     7    1
     9    16    19    1
    10    26    24    1
    11    14    12    1
    12    22    20    1
    13    20    21    1
    14    20     1    1
    15     7    12    1
    16     7     4    1
    17    24    25    1
    18    24    27    1
    19    24     1    1
    20    12    15    1
    21    12    13    1
    22     1     4    1
    23     1     5    1
    24     4    80   am
    25    80     6    2
    26    30    28    1
    27    39    36    1
    28    67    66    1
    29    59    57    1
    30    68    66    1
    31    61    60    1
    32    37    36    1
    33     5    28    1
    34     5    54    1
    35    38    36    1
    36    29    28    1
    37    36    34    1
    38    28    31    1
    39    66    60    1
    40    66    69    1
    41    75    72    1
    42    55    54    1
    43    63    62    1
    44    60    62    1
    45    60     3    1
    46    57    54    1
    47    57    58    1
    48    57     3    1
    49    54    56    1
    50    74    72    1
    51    72    73    1
    52    72    70    1
    53    62    65    1
    54    62    64    1
    55    33    31    1
    56    31     2    1
    57    31    32    1
    58    34    35    1
    59    34     2    1
    60    34    40    1
    61     2    44    1
    62     3    70    1
    63    41    40    1
    64    70    71    1
    65    70    76    1
    66    40    43    1
    67    40    42    1
    68    79    76    1
    69    76    77    1
    70    76    78    1
    71    53    50    1
    72    48    46    1
    73    44    45    1
    74    44    50    1
    75    44    46    1
    76    52    50    1
    77    49    46    1
    78    50    51    1
    79    46    47    1
