@<TRIPOS>MOLECULE
1,18,42
 50 50 0 0 0
SMALL
GASTEIGER

@<TRIPOS>ATOM
      1 P           5.0457    7.9626    5.4019 P.3     1  UNL1        0.0000
      2 C           6.3458    8.4462    6.6521 C.3     1  UNL1        0.0000
      3 H           5.9112    9.1786    7.3329 H       1  UNL1        0.0000
      4 SI          7.6693    9.3132    5.5733 Si      1  UNL1        0.0000
      5 C           8.2212    8.1859    4.1312 C.3     1  UNL1        0.0000
      6 H           8.8021    7.3381    4.4753 H       1  UNL1        0.0000
      7 H           8.8358    8.7400    3.4286 H       1  UNL1        0.0000
      8 H           7.3621    7.8046    3.5872 H       1  UNL1        0.0000
      9 C           9.2298    9.8272    6.5507 C.3     1  UNL1        0.0000
     10 H           9.7726    8.9673    6.9270 H       1  UNL1        0.0000
     11 H           8.9854   10.4611    7.3968 H       1  UNL1        0.0000
     12 H           9.9056   10.3854    5.9108 H       1  UNL1        0.0000
     13 C           6.9573   10.9017    4.7849 C.3     1  UNL1        0.0000
     14 H           6.0189   10.7035    4.2767 H       1  UNL1        0.0000
     15 H           7.6493   11.3119    4.0557 H       1  UNL1        0.0000
     16 H           6.7721   11.6724    5.5262 H       1  UNL1        0.0000
     17 SI          6.8831    6.9892    7.8110 Si      1  UNL1        0.0000
     18 C           5.4351    5.9228    8.3733 C.3     1  UNL1        0.0000
     19 H           5.0812    6.2487    9.3571 H       1  UNL1        0.0000
     20 H           5.7455    4.8787    8.4878 H       1  UNL1        0.0000
     21 C           8.2127    5.9218    6.9376 C.3     1  UNL1        0.0000
     22 H           8.4711    5.0623    7.5480 H       1  UNL1        0.0000
     23 H           9.1228    6.4849    6.7645 H       1  UNL1        0.0000
     24 H           7.8553    5.5622    5.9803 H       1  UNL1        0.0000
     25 C           7.7392    7.8336    9.3063 C.3     1  UNL1        0.0000
     26 H           8.1369    7.0884    9.9869 H       1  UNL1        0.0000
     27 H           7.0308    8.4370    9.8652 H       1  UNL1        0.0000
     28 H           8.5566    8.4788    9.0079 H       1  UNL1        0.0000
     29 C           3.8211    9.2857    5.4413 C.ar    1  UNL1        0.0000
     30 C           3.9240   10.4597    6.2036 C.ar    1  UNL1        0.0000
     31 H           4.7733   10.6074    6.8530 H       1  UNL1        0.0000
     32 C           2.9774   11.4601    6.1350 C.ar    1  UNL1        0.0000
     33 H           3.0909   12.3449    6.7461 H       1  UNL1        0.0000
     34 C           1.8945   11.3454    5.2785 C.ar    1  UNL1        0.0000
     35 H           1.1561   12.1299    5.2129 H       1  UNL1        0.0000
     36 C           1.7871   10.2106    4.4887 C.ar    1  UNL1        0.0000
     37 H           0.9620   10.1283    3.7926 H       1  UNL1        0.0000
     38 C           2.7172    9.1890    4.5589 C.ar    1  UNL1        0.0000
     39 C           2.5663    7.9942    3.6601 C.3     1  UNL1        0.0000
     40 H           3.5605    7.6935    3.3070 H       1  UNL1        0.0000
     41 H           1.9568    8.2711    2.7826 H       1  UNL1        0.0000
     42 N           1.9573    6.8280    4.3302 N.3     1  UNL1        0.0000
     43 C           1.9583    5.7070    3.3930 C.3     1  UNL1        0.0000
     44 H           1.4283    5.9630    2.4621 H       1  UNL1        0.0000
     45 H           1.4632    4.8512    3.8493 H       1  UNL1        0.0000
     46 H           2.9843    5.4377    3.1414 H       1  UNL1        0.0000
     47 C           0.5706    7.1382    4.6771 C.3     1  UNL1        0.0000
     48 H          -0.0417    7.2950    3.7760 H       1  UNL1        0.0000
     49 H           0.5400    8.0452    5.2765 H       1  UNL1        0.0000
     50 H           0.1445    6.3159    5.2525 H       1  UNL1        0.0000
@<TRIPOS>BOND
     1    44    43    1
     2    41    39    1
     3    46    43    1
     4    40    39    1
     5    43    45    1
     6    43    42    1
     7     7     5    1
     8     8     5    1
     9    39    42    1
    10    39    38    1
    11    48    47    1
    12    37    36    1
    13    15    13    1
    14     5     6    1
    15     5     4    1
    16    14    13    1
    17    42    47    1
    18    36    38   ar
    19    36    34   ar
    20    38    29   ar
    21    47    50    1
    22    47    49    1
    23    13    16    1
    24    13     4    1
    25    35    34    1
    26    34    32   ar
    27     1    29    1
    28     1     2    1
    29    29    30   ar
    30     4     9    1
    31     4     2    1
    32    12     9    1
    33    24    21    1
    34    32    30   ar
    35    32    33    1
    36    30    31    1
    37     9    10    1
    38     9    11    1
    39     2     3    1
    40     2    17    1
    41    23    21    1
    42    21    22    1
    43    21    17    1
    44    17    18    1
    45    17    25    1
    46    18    20    1
    47    18    19    1
    48    28    25    1
    49    25    27    1
    50    25    26    1
