@<TRIPOS>MOLECULE
1,2,8,10
 25 31 0 0 0
SMALL
GASTEIGER

@<TRIPOS>ATOM
      1 SI         18.4196    2.5713    5.7766 Si      1  UNL1        0.0000
      2 B          18.5257    2.2113    3.7296 B       1  UNL1        0.0000
      3 H          19.4983    1.7159    3.2658 H       1  UNL1        0.0000
      4 B          17.3832    1.1694    4.7286 B       1  UNL1        0.0000
      5 H          17.6341    0.0292    4.9260 H       1  UNL1        0.0000
      6 B          16.4366    2.1815    6.0119 B       1  UNL1        0.0000
      7 H          16.0845    1.6867    7.0283 H       1  UNL1        0.0000
      8 B          16.8861    3.9659    5.9556 B       1  UNL1        0.0000
      9 H          16.7878    4.6150    6.9432 H       1  UNL1        0.0000
     10 B          17.5545    3.4929    3.0053 B       1  UNL1        0.0000
     11 H          17.7246    3.8868    1.8890 H       1  UNL1        0.0000
     12 B          16.9446    1.8038    3.1555 B       1  UNL1        0.0000
     13 H          16.8520    1.1251    2.1867 H       1  UNL1        0.0000
     14 B          15.7385    1.7396    4.4561 B       1  UNL1        0.0000
     15 H          14.8268    0.9833    4.3801 H       1  UNL1        0.0000
     16 B          15.4879    3.3619    5.1321 B       1  UNL1        0.0000
     17 H          14.4178    3.7286    5.4897 H       1  UNL1        0.0000
     18 B          16.5958    4.5179    4.3060 B       1  UNL1        0.0000
     19 H          16.1301    5.5894    4.0504 H       1  UNL1        0.0000
     20 B          15.8470    3.1808    3.4003 B       1  UNL1        0.0000
     21 H          15.0130    3.4269    2.5915 H       1  UNL1        0.0000
     22 C          19.5157    1.8139    7.1791 C.3     1  UNL1        0.0000
     23 H          19.7509    2.5616    7.9249 H       1  UNL1        0.0000
     24 H          20.4503    1.4486    6.7750 H       1  UNL1        0.0000
     25 H          19.0196    0.9903    7.6745 H       1  UNL1        0.0000
@<TRIPOS>BOND
     1    11    10    1
     2    13    12    1
     3    21    20    1
     4    10    20    1
     5    10     2    1
     6    12     2    1
     7    12    14    1
     8    12     4    1
     9     3     2    1
    10    20    18    1
    11    20    16    1
    12     2     4    1
    13    19    18    1
    14    18     8    1
    15    15    14    1
    16    14     4    1
    17    14     6    1
    18     4     5    1
    19    16    17    1
    20    16     8    1
    21    16     6    1
    22     1    22    1
    23     8     6    1
    24     8     9    1
    25     6     7    1
    26    24    22    1
    27    22    25    1
    28    22    23    1
    29     1     4    0
    30     1     6    0
    31     1     8    0
