@<TRIPOS>MOLECULE
3,33,35,45
 46 53 0 0 0
SMALL
GASTEIGER

@<TRIPOS>ATOM
      1 SI         -6.1538   -6.1643    2.9035 Si      1  UNL1        0.0000
      2 C          -5.7436   -5.0714    1.4015 C.3     1  UNL1        0.0000
      3 C          -4.6481   -3.8935    1.6997 C.3     1  UNL1        0.0000
      4 B          -6.2863   -3.4656    1.4470 B       1  UNL1        0.0000
      5 H          -6.8989   -3.1129    2.3958 H       1  UNL1        0.0000
      6 B          -6.9240   -4.6110    0.2517 B       1  UNL1        0.0000
      7 H          -8.0147   -5.0316    0.3890 H       1  UNL1        0.0000
      8 B          -5.6234   -5.7098   -0.1882 B       1  UNL1        0.0000
      9 H          -5.8547   -6.8539   -0.3384 H       1  UNL1        0.0000
     10 B          -4.1944   -5.2456    0.7418 B       1  UNL1        0.0000
     11 H          -3.4761   -6.0423    1.2419 H       1  UNL1        0.0000
     12 B          -5.0297   -2.5340    0.6737 B       1  UNL1        0.0000
     13 H          -4.8031   -1.4429    1.0683 H       1  UNL1        0.0000
     14 B          -6.4772   -2.9762   -0.2485 B       1  UNL1        0.0000
     15 H          -7.2782   -2.1748   -0.5721 H       1  UNL1        0.0000
     16 B          -6.0414   -4.3780   -1.2699 B       1  UNL1        0.0000
     17 H          -6.5477   -4.5675   -2.3166 H       1  UNL1        0.0000
     18 B          -4.3229   -4.7833   -0.9578 B       1  UNL1        0.0000
     19 H          -3.6166   -5.2528   -1.7772 H       1  UNL1        0.0000
     20 B          -3.7272   -3.6284    0.2595 B       1  UNL1        0.0000
     21 H          -2.5962   -3.2931    0.3907 H       1  UNL1        0.0000
     22 B          -4.8561   -3.0804   -1.0031 B       1  UNL1        0.0000
     23 H          -4.5180   -2.3444   -1.8600 H       1  UNL1        0.0000
     24 C          -5.9024   -8.0150    2.4794 C.3     1  UNL1        0.0000
     25 H          -5.8041   -8.6058    3.3845 H       1  UNL1        0.0000
     26 H          -5.0206   -8.1879    1.8722 H       1  UNL1        0.0000
     27 H          -6.7537   -8.4006    1.9278 H       1  UNL1        0.0000
     28 C          -7.9905   -5.9599    3.4063 C.3     1  UNL1        0.0000
     29 H          -8.1986   -6.5074    4.3200 H       1  UNL1        0.0000
     30 H          -8.6513   -6.3447    2.6370 H       1  UNL1        0.0000
     31 H          -8.2598   -4.9228    3.5753 H       1  UNL1        0.0000
     32 C          -5.0384   -5.5357    4.2609 C.3     1  UNL1        0.0000
     33 C          -5.4197   -4.5731    5.2452 C.2     1  UNL1        0.0000
     34 H          -6.4118   -4.1433    5.3279 H       1  UNL1        0.0000
     35 C          -4.3995   -4.4009    6.1814 C.2     1  UNL1        0.0000
     36 H          -4.4407   -3.7794    7.0661 H       1  UNL1        0.0000
     37 C          -2.0915   -5.5407    6.4179 C.ar    1  UNL1        0.0000
     38 H          -1.7997   -5.0245    7.3233 H       1  UNL1        0.0000
     39 C          -1.2590   -6.4696    5.8426 C.ar    1  UNL1        0.0000
     40 H          -0.2971   -6.6821    6.2884 H       1  UNL1        0.0000
     41 C          -1.6434   -7.1703    4.6886 C.ar    1  UNL1        0.0000
     42 H          -0.9710   -7.9132    4.2813 H       1  UNL1        0.0000
     43 C          -2.8576   -6.9429    4.0856 C.ar    1  UNL1        0.0000
     44 H          -3.1486   -7.5153    3.2153 H       1  UNL1        0.0000
     45 C          -3.7273   -5.9828    4.6317 C.ar    1  UNL1        0.0000
     46 C          -3.3374   -5.2771    5.8280 C.ar    1  UNL1        0.0000
@<TRIPOS>BOND
     1    17    16    1
     2    23    22    1
     3    19    18    1
     4    16    22    1
     5    16    14    1
     6    16     8    1
     7    22    18    1
     8    22    12    1
     9    15    14    1
    10     9     8    1
    11    14     6    1
    12     8     6    1
    13     6     7    1
    14     6     2    1
    15    20    21    1
    16    20    12    1
    17    20    10    1
    18    20     3    1
    19    12    13    1
    20    12     4    1
    21    10    11    1
    22    10     2    1
    23    10     3    1
    24     2     4    1
    25     2     3    1
    26     4     3    1
    27     4     5    1
    28    26    24    1
    29    27    24    1
    30    24     1    1
    31    24    25    1
    32    30    28    1
    33     1    28    1
    34     1    32    1
    35    44    43    1
    36    28    31    1
    37    28    29    1
    38    43    45   ar
    39    43    41   ar
    40    32    45    1
    41    32    33    1
    42    42    41    1
    43    45    46   ar
    44    41    39   ar
    45    33    34    1
    46    33    35    2
    47    46    35    1
    48    46    37   ar
    49    39    40    1
    50    39    37   ar
    51    35    36    1
    52    37    38    1
    53     1     2    0
