@<TRIPOS>MOLECULE
2,27,28,29,30,31
 73 75 0 0 0
SMALL
GASTEIGER

@<TRIPOS>ATOM
      1 SI          5.6354    3.0510    4.0327 Si      1  UNL1        0.0000
      2 O           6.3440   -0.1323    1.8157 O.3     1  UNL1        0.0000
      3 O           6.9195    3.9626    3.6065 O.3     1  UNL1        0.0000
      4 C           5.8461    0.7276    0.9270 C.ar    1  UNL1        0.0000
      5 C           6.4884    1.9718    0.7598 C.ar    1  UNL1        0.0000
      6 C           5.9675    2.9122   -0.1109 C.ar    1  UNL1        0.0000
      7 C           4.8142    2.6590   -0.8325 C.ar    1  UNL1        0.0000
      8 C           4.2130    1.4153   -0.6994 C.ar    1  UNL1        0.0000
      9 C           4.7022    0.4326    0.1466 C.ar    1  UNL1        0.0000
     10 C           4.0606   -0.9484    0.2062 C.3     1  UNL1        0.0000
     11 C           2.8606   -1.1002   -0.7359 C.3     1  UNL1        0.0000
     12 C           3.5608   -1.2233    1.6317 C.3     1  UNL1        0.0000
     13 C           5.1171   -1.9785   -0.2237 C.3     1  UNL1        0.0000
     14 C           4.2228    3.6913   -1.7442 C.3     1  UNL1        0.0000
     15 C           7.7867    2.2297    1.4894 C.3     1  UNL1        0.0000
     16 C           7.6730    4.4969    2.6116 C.ar    1  UNL1        0.0000
     17 C           8.1480    3.6835    1.5798 C.ar    1  UNL1        0.0000
     18 C           8.9668    4.2240    0.5972 C.ar    1  UNL1        0.0000
     19 C           9.3202    5.5587    0.6123 C.ar    1  UNL1        0.0000
     20 C           8.8352    6.3519    1.6429 C.ar    1  UNL1        0.0000
     21 C           8.0209    5.8616    2.6534 C.ar    1  UNL1        0.0000
     22 C           7.5071    6.7859    3.7521 C.3     1  UNL1        0.0000
     23 C           8.0648    8.2108    3.6428 C.3     1  UNL1        0.0000
     24 C           5.9796    6.8839    3.6374 C.3     1  UNL1        0.0000
     25 C           7.9222    6.2457    5.1269 C.3     1  UNL1        0.0000
     26 C          10.2136    6.1456   -0.4391 C.3     1  UNL1        0.0000
     27 C           6.1284    1.2891    4.4508 C.3     1  UNL1        0.0000
     28 C           5.1988    0.2620    4.7417 C.2     1  UNL1        0.0000
     29 C           5.8509   -0.7567    5.4550 C.2     1  UNL1        0.0000
     30 C           7.2040   -0.3856    5.6127 C.3     1  UNL1        0.0000
     31 C           7.3733    0.8729    5.0045 C.3     1  UNL1        0.0000
     32 C           5.0853    3.7924    5.7080 C.3     1  UNL1        0.0000
     33 C           4.1774    3.1551    2.7997 C.3     1  UNL1        0.0000
     34 H           6.4723    3.8605   -0.2233 H       1  UNL1        0.0000
     35 H           3.3325    1.2228   -1.2895 H       1  UNL1        0.0000
     36 H           2.4731   -2.1136   -0.6526 H       1  UNL1        0.0000
     37 H           3.1461   -0.9361   -1.7720 H       1  UNL1        0.0000
     38 H           2.0600   -0.4132   -0.4722 H       1  UNL1        0.0000
     39 H           3.1511   -2.2298    1.6971 H       1  UNL1        0.0000
     40 H           2.7734   -0.5150    1.8864 H       1  UNL1        0.0000
     41 H           4.3705   -1.1244    2.3567 H       1  UNL1        0.0000
     42 H           4.7402   -2.9897   -0.0819 H       1  UNL1        0.0000
     43 H           6.0391   -1.8588    0.3466 H       1  UNL1        0.0000
     44 H           5.3515   -1.8433   -1.2782 H       1  UNL1        0.0000
     45 H           3.2844    4.0634   -1.3325 H       1  UNL1        0.0000
     46 H           4.0099    3.2650   -2.7230 H       1  UNL1        0.0000
     47 H           4.9004    4.5321   -1.8676 H       1  UNL1        0.0000
     48 H           7.7370    1.7831    2.4897 H       1  UNL1        0.0000
     49 H           8.5774    1.7155    0.9287 H       1  UNL1        0.0000
     50 H           9.3269    3.5805   -0.1935 H       1  UNL1        0.0000
     51 H           9.1187    7.3907    1.6400 H       1  UNL1        0.0000
     52 H           9.1503    8.2172    3.7089 H       1  UNL1        0.0000
     53 H           7.6766    8.8046    4.4680 H       1  UNL1        0.0000
     54 H           7.7576    8.6914    2.7168 H       1  UNL1        0.0000
     55 H           5.5154    5.9078    3.7104 H       1  UNL1        0.0000
     56 H           5.7077    7.3236    2.6792 H       1  UNL1        0.0000
     57 H           5.5854    7.5159    4.4306 H       1  UNL1        0.0000
     58 H           9.0077    6.2036    5.1942 H       1  UNL1        0.0000
     59 H           7.5265    5.2523    5.2960 H       1  UNL1        0.0000
     60 H           7.5535    6.9035    5.9113 H       1  UNL1        0.0000
     61 H           9.8064    7.0844   -0.8101 H       1  UNL1        0.0000
     62 H          10.3324    5.4601   -1.2744 H       1  UNL1        0.0000
     63 H          11.1995    6.3520   -0.0224 H       1  UNL1        0.0000
     64 H           4.1348    0.3135    4.5440 H       1  UNL1        0.0000
     65 H           5.3601   -1.5994    5.9262 H       1  UNL1        0.0000
     66 H           7.9410   -0.9000    6.2182 H       1  UNL1        0.0000
     67 H           8.2584    1.4940    5.0820 H       1  UNL1        0.0000
     68 H           5.8927    3.7792    6.4339 H       1  UNL1        0.0000
     69 H           4.2738    3.2034    6.1234 H       1  UNL1        0.0000
     70 H           4.7364    4.8160    5.6223 H       1  UNL1        0.0000
     71 H           4.3626    3.9049    2.0364 H       1  UNL1        0.0000
     72 H           3.2593    3.4279    3.3111 H       1  UNL1        0.0000
     73 H           4.0007    2.2142    2.2873 H       1  UNL1        0.0000
@<TRIPOS>BOND
     1    46    14    1
     2    47    14    1
     3    37    11    1
     4    14    45    1
     5    14     7    1
     6    35     8    1
     7    44    13    1
     8    62    26    1
     9     7     8   ar
    10     7     6   ar
    11    61    26    1
    12    11    36    1
    13    11    38    1
    14    11    10    1
    15     8     9   ar
    16    26    63    1
    17    26    19    1
    18    13    42    1
    19    13    10    1
    20    13    43    1
    21    34     6    1
    22    50    18    1
    23     6     5   ar
    24     9    10    1
    25     9     4   ar
    26    10    12    1
    27    18    19   ar
    28    18    17   ar
    29    19    20   ar
    30     5     4   ar
    31     5    15    1
    32     4     2    1
    33    49    15    1
    34    15    17    1
    35    15    48    1
    36    17    16   ar
    37    12    39    1
    38    12    40    1
    39    12    41    1
    40    51    20    1
    41    20    21   ar
    42    71    33    1
    43    73    33    1
    44    16    21   ar
    45    16     3    1
    46    21    22    1
    47    56    24    1
    48    54    23    1
    49    33    72    1
    50    33     1    1
    51     3     1    1
    52    24    55    1
    53    24    22    1
    54    24    57    1
    55    23    52    1
    56    23    22    1
    57    23    53    1
    58    22    25    1
    59     1    27    1
    60     1    32    1
    61    27    28    1
    62    27    31    1
    63    64    28    1
    64    28    29    2
    65    31    67    1
    66    31    30    1
    67    25    58    1
    68    25    59    1
    69    25    60    1
    70    29    30    1
    71    29    65    1
    72    30    66    1
    73    70    32    1
    74    32    69    1
    75    32    68    1
