@<TRIPOS>MOLECULE
1,11,12,21,22,23
 43 46 0 0 0
SMALL
GASTEIGER

@<TRIPOS>ATOM
      1 O          19.7278   -0.0855    4.1542 O.3     1  UNL1       -0.3797
      2 C          18.3059   -0.0082    4.0466 C.3     1  UNL1        0.0485
      3 C          17.8761    1.4639    4.1689 C.3     1  UNL1       -0.0187
      4 C          18.4202    2.0774    5.4218 C.3     1  UNL1        0.0117
      5 C          17.9072    1.9177    6.7404 C.ar    1  UNL1       -0.0365
      6 C          16.7427    1.3168    7.2354 C.ar    1  UNL1       -0.0577
      7 C          16.4743    1.3818    8.5821 C.ar    1  UNL1       -0.0615
      8 C          17.3391    2.0438    9.4635 C.ar    1  UNL1       -0.0615
      9 C          18.4988    2.6308    9.0152 C.ar    1  UNL1       -0.0580
     10 C          18.8139    2.5635    7.6522 C.ar    1  UNL1       -0.0396
     11 C          19.9299    3.0511    6.8921 C.3     1  UNL1       -0.0045
     12 C          19.6239    2.7867    5.5117 C.3     1  UNL1       -0.0189
     13 C          20.3107   -1.2519    3.5705 C.3     1  UNL1        0.0485
     14 C          21.7483   -0.9280    3.1182 C.3     1  UNL1       -0.0187
     15 C          22.4616   -0.1368    4.1719 C.3     1  UNL1        0.0117
     16 C          22.6106    1.2794    4.1835 C.ar    1  UNL1       -0.0365
     17 C          22.3732    2.2706    3.2211 C.ar    1  UNL1       -0.0577
     18 C          22.6997    3.5759    3.5033 C.ar    1  UNL1       -0.0615
     19 C          23.2683    3.9360    4.7343 C.ar    1  UNL1       -0.0615
     20 C          23.5053    2.9976    5.7099 C.ar    1  UNL1       -0.0580
     21 C          23.1700    1.6554    5.4605 C.ar    1  UNL1       -0.0396
     22 C          23.3143    0.4584    6.2417 C.3     1  UNL1       -0.0045
     23 C          22.9081   -0.6257    5.4019 C.3     1  UNL1       -0.0189
     24 H          17.9880   -0.4042    3.0727 H       1  UNL1        0.0560
     25 H          17.8406   -0.6095    4.8428 H       1  UNL1        0.0560
     26 H          18.2563    2.0090    3.3018 H       1  UNL1        0.0296
     27 H          16.7851    1.5016    4.1565 H       1  UNL1        0.0296
     28 H          16.0550    0.8217    6.5626 H       1  UNL1        0.0621
     29 H          15.5755    0.9271    8.9734 H       1  UNL1        0.0618
     30 H          17.0803    2.0955   10.5114 H       1  UNL1        0.0618
     31 H          19.1532    3.1567    9.6989 H       1  UNL1        0.0620
     32 H          20.6005    3.8380    7.2251 H       1  UNL1        0.0358
     33 H          20.1620    3.2101    4.6707 H       1  UNL1        0.0319
     34 H          20.3178   -2.0670    4.3115 H       1  UNL1        0.0560
     35 H          19.7147   -1.5729    2.7065 H       1  UNL1        0.0560
     36 H          21.7083   -0.3464    2.1963 H       1  UNL1        0.0296
     37 H          22.2612   -1.8701    2.9116 H       1  UNL1        0.0296
     38 H          21.9529    2.0096    2.2591 H       1  UNL1        0.0621
     39 H          22.5274    4.3449    2.7638 H       1  UNL1        0.0618
     40 H          23.5282    4.9703    4.9082 H       1  UNL1        0.0618
     41 H          23.9656    3.2784    6.6503 H       1  UNL1        0.0620
     42 H          23.9630    0.3613    7.1057 H       1  UNL1        0.0358
     43 H          23.0240   -1.6737    5.6497 H       1  UNL1        0.0319
@<TRIPOS>BOND
     1    36    14    1
     2    38    17    1
     3    35    13    1
     4    39    18    1
     5    37    14    1
     6    24     2    1
     7    14    13    1
     8    14    15    1
     9    17    18   ar
    10    17    16   ar
    11    26     3    1
    12    18    19   ar
    13    13     1    1
    14    13    34    1
    15     2     1    1
    16     2     3    1
    17     2    25    1
    18    27     3    1
    19     3     4    1
    20    15    16    1
    21    15    23    1
    22    16    21   ar
    23    33    12    1
    24    19    40    1
    25    19    20   ar
    26    23    43    1
    27    23    22    1
    28     4    12    1
    29     4     5    1
    30    21    20   ar
    31    21    22    1
    32    12    11    1
    33    20    41    1
    34    22    42    1
    35    28     6    1
    36     5     6   ar
    37     5    10   ar
    38    11    32    1
    39    11    10    1
    40     6     7   ar
    41    10     9   ar
    42     7    29    1
    43     7     8   ar
    44     9     8   ar
    45     9    31    1
    46     8    30    1
