@<TRIPOS>MOLECULE
2,36,37,38,39,40
 56 57 0 0 0
SMALL
GASTEIGER

@<TRIPOS>ATOM
      1 SI          9.2584   -0.2859   13.0113 Si      1  UNL1        0.0000
      2 O          10.0891    2.6764   12.4655 O.3     1  UNL1        0.0000
      3 C           9.5993    2.1138   11.3716 C.ar    1  UNL1        0.0000
      4 C           9.0639    0.8120   11.4567 C.ar    1  UNL1        0.0000
      5 C           8.4602    0.2603   10.3338 C.ar    1  UNL1        0.0000
      6 H           8.0436   -0.7341   10.4052 H       1  UNL1        0.0000
      7 C           8.3762    0.9475    9.1378 C.ar    1  UNL1        0.0000
      8 C           8.9850    2.1946    9.0521 C.ar    1  UNL1        0.0000
      9 H           8.9547    2.6973    8.0992 H       1  UNL1        0.0000
     10 C           9.6178    2.7923   10.1280 C.ar    1  UNL1        0.0000
     11 C           7.6925    0.3596    7.9390 C.3     1  UNL1        0.0000
     12 H           8.4238    0.1087    7.1701 H       1  UNL1        0.0000
     13 H           6.9905    1.0734    7.5104 H       1  UNL1        0.0000
     14 H           7.1523   -0.5451    8.2073 H       1  UNL1        0.0000
     15 C          10.3613    4.1157    9.9843 C.3     1  UNL1        0.0000
     16 C          10.3533    4.6501    8.5476 C.3     1  UNL1        0.0000
     17 H          10.9224    5.5770    8.5106 H       1  UNL1        0.0000
     18 H           9.3417    4.8677    8.2142 H       1  UNL1        0.0000
     19 H          10.8144    3.9449    7.8597 H       1  UNL1        0.0000
     20 C          11.8284    3.8933   10.3870 C.3     1  UNL1        0.0000
     21 H          12.3842    4.8254   10.3024 H       1  UNL1        0.0000
     22 H          11.8984    3.5373   11.4163 H       1  UNL1        0.0000
     23 H          12.2876    3.1559    9.7298 H       1  UNL1        0.0000
     24 C           9.7178    5.1787   10.8826 C.3     1  UNL1        0.0000
     25 H           8.6991    5.3760   10.5566 H       1  UNL1        0.0000
     26 H          10.2843    6.1068   10.8305 H       1  UNL1        0.0000
     27 H           9.6832    4.8457   11.9191 H       1  UNL1        0.0000
     28 C           9.8569   -2.0087   12.4126 C.3     1  UNL1        0.0000
     29 H           9.0512   -2.5416   11.9199 H       1  UNL1        0.0000
     30 H          10.1841   -2.6177   13.2493 H       1  UNL1        0.0000
     31 H          10.6818   -1.9419   11.7116 H       1  UNL1        0.0000
     32 C           7.5017   -0.5900   13.7232 C.3     1  UNL1        0.0000
     33 H           7.0581    0.2793   14.1986 H       1  UNL1        0.0000
     34 H           6.8411   -0.8831   12.9126 H       1  UNL1        0.0000
     35 H           7.5079   -1.4044   14.4407 H       1  UNL1        0.0000
     36 C          10.5638    0.4102   14.1714 C.3     1  UNL1        0.0000
     37 C          11.8432    0.8439   13.7068 C.2     1  UNL1        0.0000
     38 C          12.5140    1.4989   14.7665 C.2     1  UNL1        0.0000
     39 C          11.6523    1.4945   15.8963 C.2     1  UNL1        0.0000
     40 C          10.4589    0.8270   15.5362 C.2     1  UNL1        0.0000
     41 C          12.4639    0.5217   12.3779 C.3     1  UNL1        0.0000
     42 H          12.9721   -0.4450   12.4291 H       1  UNL1        0.0000
     43 H          13.2066    1.2715   12.1010 H       1  UNL1        0.0000
     44 H          11.7164    0.4663   11.5867 H       1  UNL1        0.0000
     45 C          13.9681    1.8714   14.7451 C.3     1  UNL1        0.0000
     46 H          14.5765    0.9637   14.7192 H       1  UNL1        0.0000
     47 H          14.2198    2.4637   13.8637 H       1  UNL1        0.0000
     48 H          14.2431    2.4359   15.6324 H       1  UNL1        0.0000
     49 C          12.0089    1.8814   17.3023 C.3     1  UNL1        0.0000
     50 H          12.8452    2.5759   17.3295 H       1  UNL1        0.0000
     51 H          12.2883    0.9905   17.8715 H       1  UNL1        0.0000
     52 H          11.1649    2.3497   17.8095 H       1  UNL1        0.0000
     53 C           9.4366    0.3720   16.5383 C.3     1  UNL1        0.0000
     54 H           9.1059    1.1893   17.1812 H       1  UNL1        0.0000
     55 H           9.8811   -0.3903   17.1843 H       1  UNL1        0.0000
     56 H           8.5710   -0.0673   16.0519 H       1  UNL1        0.0000
@<TRIPOS>BOND
     1    12    11    1
     2    13    11    1
     3    19    16    1
     4    11    14    1
     5    11     7    1
     6     9     8    1
     7    18    16    1
     8    17    16    1
     9    16    15    1
    10     8     7   ar
    11     8    10   ar
    12     7     5   ar
    13    23    20    1
    14    15    10    1
    15    15    20    1
    16    15    24    1
    17    10     3   ar
    18    21    20    1
    19     5     6    1
    20     5     4   ar
    21    20    22    1
    22    25    24    1
    23    26    24    1
    24    24    27    1
    25     3     4   ar
    26     3     2    1
    27     4     1    1
    28    44    41    1
    29    31    28    1
    30    29    28    1
    31    43    41    1
    32    41    42    1
    33    41    37    1
    34    28     1    1
    35    28    30    1
    36    34    32    1
    37     1    32    1
    38     1    36    1
    39    37    36    1
    40    37    38    2
    41    32    33    1
    42    32    35    1
    43    47    45    1
    44    36    40    1
    45    46    45    1
    46    45    38    1
    47    45    48    1
    48    38    39    1
    49    40    39    2
    50    40    53    1
    51    39    49    1
    52    56    53    1
    53    53    54    1
    54    53    55    1
    55    49    50    1
    56    49    52    1
    57    49    51    1
