@<TRIPOS>MOLECULE
1,2,3,4,5,6
 36 37 0 0 0
SMALL
GASTEIGER

@<TRIPOS>ATOM
      1 O           4.1387    7.8704    3.9426 O.3     1  UNL1       -0.4945
      2 C           2.8674    8.6615    1.6694 C.2     1  UNL1       -0.0225
      3 C           3.5766    8.9932    0.4823 C.2     1  UNL1       -0.0428
      4 C           3.5829   10.4063    0.3681 C.2     1  UNL1       -0.0474
      5 C           2.8716   10.9482    1.4666 C.2     1  UNL1       -0.0581
      6 C           2.4416    9.8718    2.2902 C.3     1  UNL1        0.0281
      7 C           4.0419    8.0224   -0.5685 C.3     1  UNL1       -0.0392
      8 H           3.4732    8.1713   -1.4892 H       1  UNL1        0.0278
      9 H           3.8860    6.9985   -0.2345 H       1  UNL1        0.0278
     10 H           5.0994    8.1499   -0.8053 H       1  UNL1        0.0278
     11 C           4.0751   11.1845   -0.8187 C.3     1  UNL1       -0.0395
     12 H           4.4779   12.1509   -0.5170 H       1  UNL1        0.0278
     13 H           3.2564   11.3704   -1.5182 H       1  UNL1        0.0278
     14 H           4.8514   10.6375   -1.3506 H       1  UNL1        0.0278
     15 C           2.4507   12.3858    1.5991 C.3     1  UNL1       -0.0424
     16 H           2.0122   12.5756    2.5767 H       1  UNL1        0.0275
     17 H           1.7025   12.6284    0.8408 H       1  UNL1        0.0275
     18 H           3.2934   13.0641    1.4594 H       1  UNL1        0.0275
     19 C           1.4668    9.9632    3.4365 C.3     1  UNL1       -0.0506
     20 H           1.8054   10.6548    4.2106 H       1  UNL1        0.0242
     21 H           1.3197    8.9824    3.8883 H       1  UNL1        0.0242
     22 H           0.4964   10.3137    3.0765 H       1  UNL1        0.0242
     23 C           2.6287    7.3122    2.2045 C.ar    1  UNL1        0.0209
     24 C           1.8031    6.3991    1.5627 C.ar    1  UNL1       -0.0508
     25 H           1.3317    6.6919    0.6367 H       1  UNL1        0.0625
     26 C           1.5769    5.1439    2.1010 C.ar    1  UNL1       -0.0610
     27 H           0.9318    4.4443    1.5915 H       1  UNL1        0.0618
     28 C           2.1721    4.7951    3.2978 C.ar    1  UNL1       -0.0583
     29 H           1.9933    3.8235    3.7327 H       1  UNL1        0.0619
     30 C           3.0152    5.6831    3.9518 C.ar    1  UNL1       -0.0194
     31 H           3.4805    5.3736    4.8738 H       1  UNL1        0.0654
     32 C           3.2552    6.9323    3.4050 C.ar    1  UNL1        0.1275
     33 C           4.7579    7.5220    5.1696 C.3     1  UNL1        0.0788
     34 H           4.0108    7.3659    5.9542 H       1  UNL1        0.0660
     35 H           5.3959    8.3648    5.4375 H       1  UNL1        0.0660
     36 H           5.3719    6.6235    5.0594 H       1  UNL1        0.0660
@<TRIPOS>BOND
     1    13    11    1
     2     8     7    1
     3    14    11    1
     4    11    12    1
     5    11     4    1
     6    10     7    1
     7     7     9    1
     8     7     3    1
     9     4     3    1
    10     4     5    2
    11     3     2    2
    12    25    24    1
    13    17    15    1
    14    18    15    1
    15     5    15    1
    16     5     6    1
    17    24    26   ar
    18    24    23   ar
    19    27    26    1
    20    15    16    1
    21     2    23    1
    22     2     6    1
    23    26    28   ar
    24    23    32   ar
    25     6    19    1
    26    22    19    1
    27    28    29    1
    28    28    30   ar
    29    32     1    1
    30    32    30   ar
    31    19    21    1
    32    19    20    1
    33     1    33    1
    34    30    31    1
    35    36    33    1
    36    33    35    1
    37    33    34    1
