@<TRIPOS>MOLECULE
3,4,5,6,7,8
 57 59 0 0 0
SMALL
GASTEIGER

@<TRIPOS>ATOM
      1 SI          7.4970    3.7617   14.1893 Si      1  UNL1        0.0000
      2 P           8.9329    3.2338   11.5273 P.3     1  UNL1        0.0000
      3 O           8.8836    1.7687   11.8435 O.3     1  UNL1        0.0000
      4 C           7.6277    1.9378   14.5544 C.3     1  UNL1        0.0000
      5 C           8.5983    1.2672   15.3697 C.2     1  UNL1        0.0000
      6 C           8.1594   -0.0518   15.5954 C.2     1  UNL1        0.0000
      7 C           6.9245   -0.2338   14.9132 C.3     1  UNL1        0.0000
      8 C           6.6027    0.9744   14.2604 C.3     1  UNL1        0.0000
      9 C           9.7627    1.9090   16.0735 C.3     1  UNL1        0.0000
     10 H           9.4285    2.3739   17.0042 H       1  UNL1        0.0000
     11 H          10.2295    2.6788   15.4637 H       1  UNL1        0.0000
     12 H          10.5165    1.1659   16.3309 H       1  UNL1        0.0000
     13 C           8.7591   -1.0389   16.5560 C.3     1  UNL1        0.0000
     14 H           9.8424   -0.9453   16.6049 H       1  UNL1        0.0000
     15 H           8.5178   -2.0598   16.2657 H       1  UNL1        0.0000
     16 H           8.3634   -0.8750   17.5612 H       1  UNL1        0.0000
     17 C           6.0280   -1.4298   15.0784 C.3     1  UNL1        0.0000
     18 H           5.6104   -1.4443   16.0875 H       1  UNL1        0.0000
     19 H           6.5719   -2.3635   14.9327 H       1  UNL1        0.0000
     20 H           5.1993   -1.4025   14.3747 H       1  UNL1        0.0000
     21 C           5.2918    1.2550   13.5753 C.3     1  UNL1        0.0000
     22 H           4.9579    0.3940   12.9951 H       1  UNL1        0.0000
     23 H           5.3739    2.1042   12.9011 H       1  UNL1        0.0000
     24 H           4.5207    1.4832   14.3157 H       1  UNL1        0.0000
     25 C           5.8187    4.5082   14.7368 C.3     1  UNL1        0.0000
     26 H           4.9730    4.1124   14.1865 H       1  UNL1        0.0000
     27 H           5.8128    5.5873   14.6151 H       1  UNL1        0.0000
     28 H           5.6470    4.2991   15.7866 H       1  UNL1        0.0000
     29 C           8.7987    4.9309   14.9640 C.3     1  UNL1        0.0000
     30 H           8.8137    4.8255   16.0426 H       1  UNL1        0.0000
     31 H           8.5434    5.9643   14.7447 H       1  UNL1        0.0000
     32 H           9.8055    4.7627   14.5974 H       1  UNL1        0.0000
     33 C           7.5748    4.1449   12.2852 C.3     1  UNL1        0.0000
     34 H           6.6556    3.8086   11.8070 H       1  UNL1        0.0000
     35 H           7.6970    5.2061   12.0820 H       1  UNL1        0.0000
     36 C          10.4925    3.9432   12.1144 C.ar    1  UNL1        0.0000
     37 C          10.8474    5.2468   11.7922 C.ar    1  UNL1        0.0000
     38 H          10.1968    5.8362   11.1607 H       1  UNL1        0.0000
     39 C          12.0295    5.7766   12.2757 C.ar    1  UNL1        0.0000
     40 H          12.3080    6.7902   12.0284 H       1  UNL1        0.0000
     41 C          12.8575    5.0057   13.0779 C.ar    1  UNL1        0.0000
     42 H          13.7796    5.4230   13.4543 H       1  UNL1        0.0000
     43 C          11.3234    3.1702   12.9133 C.ar    1  UNL1        0.0000
     44 H          11.0333    2.1503   13.1412 H       1  UNL1        0.0000
     45 C          12.5070    3.7031   13.3942 C.ar    1  UNL1        0.0000
     46 H          13.1550    3.1025   14.0152 H       1  UNL1        0.0000
     47 C           8.9351    3.4945    9.7239 C.ar    1  UNL1        0.0000
     48 C           7.8015    3.8824    9.0255 C.ar    1  UNL1        0.0000
     49 H           6.8872    4.1055    9.5552 H       1  UNL1        0.0000
     50 C           7.8396    3.9846    7.6457 C.ar    1  UNL1        0.0000
     51 H           6.9536    4.2833    7.1049 H       1  UNL1        0.0000
     52 C           9.0084    3.7006    6.9598 C.ar    1  UNL1        0.0000
     53 H           9.0334    3.7749    5.8828 H       1  UNL1        0.0000
     54 C          10.1455    3.3216    7.6551 C.ar    1  UNL1        0.0000
     55 H          11.0587    3.1012    7.1229 H       1  UNL1        0.0000
     56 C          10.1092    3.2209    9.0332 C.ar    1  UNL1        0.0000
     57 H          10.9916    2.9274    9.5848 H       1  UNL1        0.0000
@<TRIPOS>BOND
     1    53    52    1
     2    52    50   ar
     3    52    54   ar
     4    51    50    1
     5    55    54    1
     6    50    48   ar
     7    54    56   ar
     8    48    49    1
     9    48    47   ar
    10    56    57    1
    11    56    47   ar
    12    47     2    1
    13    38    37    1
    14     2     3    1
    15     2    36    1
    16     2    33    1
    17    37    36   ar
    18    37    39   ar
    19    34    33    1
    20    40    39    1
    21    35    33    1
    22    36    43   ar
    23    39    41   ar
    24    33     1    1
    25    23    21    1
    26    43    44    1
    27    43    45   ar
    28    22    21    1
    29    41    45   ar
    30    41    42    1
    31    45    46    1
    32    21     8    1
    33    21    24    1
    34    26    25    1
    35     1     4    1
    36     1    25    1
    37     1    29    1
    38     8     4    1
    39     8     7    1
    40    20    17    1
    41     4     5    1
    42    32    29    1
    43    27    25    1
    44    25    28    1
    45    31    29    1
    46     7    17    1
    47     7     6    1
    48    19    17    1
    49    29    30    1
    50    17    18    1
    51     5     6    2
    52     5     9    1
    53    11     9    1
    54     6    13    1
    55     9    12    1
    56     9    10    1
    57    15    13    1
    58    13    14    1
    59    13    16    1
