@<TRIPOS>MOLECULE
2,17,18,19,20
 56 57 0 0 0
SMALL
GASTEIGER

@<TRIPOS>ATOM
      1 SI         -0.6585    3.3842    5.8158 Si      1  UNL1        0.0000
      2 O           1.5840    3.4667    3.8710 O.3     1  UNL1        0.0000
      3 C          -0.6015    2.6525    4.0548 C.ar    1  UNL1        0.0000
      4 C           0.5648    2.8433    3.2934 C.ar    1  UNL1        0.0000
      5 C           0.6571    2.3715    1.9669 C.ar    1  UNL1        0.0000
      6 C          -0.4506    1.7254    1.4424 C.ar    1  UNL1        0.0000
      7 C          -1.6174    1.5255    2.1732 C.ar    1  UNL1        0.0000
      8 C          -1.6735    1.9892    3.4765 C.ar    1  UNL1        0.0000
      9 C          -2.7849    0.8292    1.5408 C.3     1  UNL1        0.0000
     10 C           1.9536    2.5489    1.1858 C.3     1  UNL1        0.0000
     11 C           2.3424    4.0354    1.1303 C.3     1  UNL1        0.0000
     12 C           3.0553    1.7365    1.8860 C.3     1  UNL1        0.0000
     13 C           1.8388    2.0451   -0.2573 C.3     1  UNL1        0.0000
     14 C          -1.1418    5.2189    5.5630 C.3     1  UNL1        0.0000
     15 C          -1.9711    2.4738    6.8613 C.3     1  UNL1        0.0000
     16 C           1.0469    3.1865    6.6067 C.3     1  UNL1        0.0000
     17 C           1.9641    2.1252    6.3240 C.2     1  UNL1        0.0000
     18 C           3.2471    2.5010    6.7998 C.2     1  UNL1        0.0000
     19 C           3.1396    3.8033    7.3671 C.2     1  UNL1        0.0000
     20 C           1.7891    4.2156    7.2726 C.2     1  UNL1        0.0000
     21 C           1.6182    0.7771    5.7573 C.3     1  UNL1        0.0000
     22 C           4.4677    1.6295    6.8398 C.3     1  UNL1        0.0000
     23 C           4.2511    4.5596    8.0357 C.3     1  UNL1        0.0000
     24 C           1.2089    5.4278    7.9406 C.3     1  UNL1        0.0000
     25 H          -3.5586    0.6243    2.2760 H       1  UNL1        0.0000
     26 H          -2.4726   -0.1107    1.0885 H       1  UNL1        0.0000
     27 H          -3.2130    1.4502    0.7542 H       1  UNL1        0.0000
     28 H           1.5355    4.6173    0.6875 H       1  UNL1        0.0000
     29 H           3.2343    4.1587    0.5190 H       1  UNL1        0.0000
     30 H           2.5570    4.4398    2.1232 H       1  UNL1        0.0000
     31 H           3.2146    2.0844    2.9103 H       1  UNL1        0.0000
     32 H           3.9937    1.8395    1.3452 H       1  UNL1        0.0000
     33 H           2.7830    0.6819    1.9116 H       1  UNL1        0.0000
     34 H           1.0646    2.5832   -0.7992 H       1  UNL1        0.0000
     35 H           1.6242    0.9794   -0.2886 H       1  UNL1        0.0000
     36 H           2.7844    2.2094   -0.7694 H       1  UNL1        0.0000
     37 H          -0.2985    5.7901    5.1759 H       1  UNL1        0.0000
     38 H          -1.4783    5.6920    6.4798 H       1  UNL1        0.0000
     39 H          -1.9515    5.2968    4.8418 H       1  UNL1        0.0000
     40 H          -1.8230    1.3993    6.8696 H       1  UNL1        0.0000
     41 H          -2.9635    2.6709    6.4738 H       1  UNL1        0.0000
     42 H          -1.9495    2.8158    7.8901 H       1  UNL1        0.0000
     43 H           0.5790    0.7483    5.4352 H       1  UNL1        0.0000
     44 H           1.7630    0.0067    6.5182 H       1  UNL1        0.0000
     45 H           2.2519    0.5301    4.9017 H       1  UNL1        0.0000
     46 H           4.3377    0.7521    6.2085 H       1  UNL1        0.0000
     47 H           4.6531    1.2960    7.8637 H       1  UNL1        0.0000
     48 H           5.3493    2.1713    6.4953 H       1  UNL1        0.0000
     49 H           4.0792    5.6343    7.9702 H       1  UNL1        0.0000
     50 H           5.2073    4.3334    7.5628 H       1  UNL1        0.0000
     51 H           4.3220    4.2841    9.0913 H       1  UNL1        0.0000
     52 H           0.1640    5.2514    8.1861 H       1  UNL1        0.0000
     53 H           1.2725    6.3130    7.3050 H       1  UNL1        0.0000
     54 H           1.7498    5.6348    8.8641 H       1  UNL1        0.0000
     55 H          -0.4263    1.3544    0.4306 H       1  UNL1        0.0000
     56 H          -2.5688    1.8383    4.0613 H       1  UNL1        0.0000
@<TRIPOS>BOND
     1    34    13    1
     2    36    13    1
     3    35    13    1
     4    13    10    1
     5    55     6    1
     6    29    11    1
     7    28    11    1
     8    27     9    1
     9    26     9    1
    10    11    10    1
    11    11    30    1
    12    10    12    1
    13    10     5    1
    14    32    12    1
    15     6     5   ar
    16     6     7   ar
    17     9     7    1
    18     9    25    1
    19    12    33    1
    20    12    31    1
    21     5     4   ar
    22     7     8   ar
    23     4     2    1
    24     4     3   ar
    25     8     3   ar
    26     8    56    1
    27     3     1    1
    28    39    14    1
    29    45    21    1
    30    37    14    1
    31    43    21    1
    32    14     1    1
    33    14    38    1
    34    21    17    1
    35    21    44    1
    36     1    16    1
    37     1    15    1
    38    46    22    1
    39    17    16    1
    40    17    18    2
    41    41    15    1
    42    48    22    1
    43    16    20    1
    44    18    22    1
    45    18    19    1
    46    22    47    1
    47    15    40    1
    48    15    42    1
    49    20    19    2
    50    20    24    1
    51    53    24    1
    52    19    23    1
    53    50    23    1
    54    24    52    1
    55    24    54    1
    56    49    23    1
    57    23    51    1
