@<TRIPOS>MOLECULE
2,27,28,30,31
 73 75 0 0 0
SMALL
GASTEIGER

@<TRIPOS>ATOM
      1 SI          3.0278    5.4567    8.6964 Si      1  UNL1        0.0000
      2 O           5.4806    4.3964    5.1555 O.3     1  UNL1        0.0000
      3 O           4.3611    6.3627    8.9947 O.3     1  UNL1        0.0000
      4 C           6.5547    5.1703    5.3105 C.ar    1  UNL1        0.0000
      5 C           6.9816    5.4392    6.6272 C.ar    1  UNL1        0.0000
      6 C           8.0233    6.3233    6.8332 C.ar    1  UNL1        0.0000
      7 C           8.6708    6.9270    5.7650 C.ar    1  UNL1        0.0000
      8 C           8.2867    6.5942    4.4743 C.ar    1  UNL1        0.0000
      9 C           7.2457    5.7158    4.2084 C.ar    1  UNL1        0.0000
     10 C           6.8687    5.3144    2.7873 C.3     1  UNL1        0.0000
     11 C           7.7817    5.9537    1.7350 C.3     1  UNL1        0.0000
     12 C           5.4266    5.7518    2.4888 C.3     1  UNL1        0.0000
     13 C           6.9963    3.7885    2.6556 C.3     1  UNL1        0.0000
     14 C           9.7995    7.8828    6.0078 C.3     1  UNL1        0.0000
     15 C           6.3107    4.6881    7.7569 C.3     1  UNL1        0.0000
     16 C           5.5524    6.1898    9.6498 C.ar    1  UNL1        0.0000
     17 C           6.5081    5.3342    9.0959 C.ar    1  UNL1        0.0000
     18 C           7.6997    5.1001    9.7690 C.ar    1  UNL1        0.0000
     19 C           7.9775    5.7267   10.9676 C.ar    1  UNL1        0.0000
     20 C           7.0386    6.6149   11.4728 C.ar    1  UNL1        0.0000
     21 C           5.8247    6.8722   10.8497 C.ar    1  UNL1        0.0000
     22 C           4.8328    7.8393   11.4895 C.3     1  UNL1        0.0000
     23 C           5.4509    8.6534   12.6347 C.3     1  UNL1        0.0000
     24 C           4.3212    8.8522   10.4574 C.3     1  UNL1        0.0000
     25 C           3.6766    7.0199   12.0771 C.3     1  UNL1        0.0000
     26 C           9.2601    5.4824   11.7042 C.3     1  UNL1        0.0000
     27 C           2.4609    5.5960    4.6227 C.2     1  UNL1        0.0000
     28 C           3.1630    6.0057    5.7759 C.2     1  UNL1        0.0000
     29 C           2.8156    5.1395    6.8511 C.3     1  UNL1        0.0000
     30 C           1.8689    4.2088    6.3313 C.2     1  UNL1        0.0000
     31 C           1.6508    4.4906    4.9747 C.2     1  UNL1        0.0000
     32 C           1.5112    6.5488    9.1054 C.3     1  UNL1        0.0000
     33 C           3.0590    3.8145    9.6639 C.3     1  UNL1        0.0000
     34 H           8.3382    6.5476    7.8410 H       1  UNL1        0.0000
     35 H           8.8269    7.0441    3.6581 H       1  UNL1        0.0000
     36 H           7.4902    5.5985    0.7490 H       1  UNL1        0.0000
     37 H           8.8211    5.6780    1.8950 H       1  UNL1        0.0000
     38 H           7.6919    7.0375    1.7408 H       1  UNL1        0.0000
     39 H           5.2033    5.5895    1.4362 H       1  UNL1        0.0000
     40 H           5.3003    6.8109    2.7117 H       1  UNL1        0.0000
     41 H           4.7146    5.1705    3.0800 H       1  UNL1        0.0000
     42 H           6.7030    3.4766    1.6557 H       1  UNL1        0.0000
     43 H           6.3582    3.2686    3.3729 H       1  UNL1        0.0000
     44 H           8.0274    3.4839    2.8271 H       1  UNL1        0.0000
     45 H           9.5978    8.5003    6.8802 H       1  UNL1        0.0000
     46 H           9.9579    8.5268    5.1465 H       1  UNL1        0.0000
     47 H          10.7219    7.3322    6.1942 H       1  UNL1        0.0000
     48 H           5.2456    4.5855    7.5253 H       1  UNL1        0.0000
     49 H           6.7334    3.6753    7.7767 H       1  UNL1        0.0000
     50 H           8.4156    4.4162    9.3361 H       1  UNL1        0.0000
     51 H           7.2794    7.1100   12.3981 H       1  UNL1        0.0000
     52 H           4.7192    9.3781   12.9860 H       1  UNL1        0.0000
     53 H           6.3302    9.1986   12.2996 H       1  UNL1        0.0000
     54 H           5.7185    8.0242   13.4799 H       1  UNL1        0.0000
     55 H           3.6199    9.5379   10.9286 H       1  UNL1        0.0000
     56 H           3.8209    8.3625    9.6321 H       1  UNL1        0.0000
     57 H           5.1554    9.4295   10.0635 H       1  UNL1        0.0000
     58 H           2.9234    7.6818   12.4989 H       1  UNL1        0.0000
     59 H           4.0470    6.3695   12.8675 H       1  UNL1        0.0000
     60 H           3.2123    6.4027   11.3176 H       1  UNL1        0.0000
     61 H           9.0590    5.1778   12.7299 H       1  UNL1        0.0000
     62 H           9.8571    6.3933   11.7393 H       1  UNL1        0.0000
     63 H           9.8440    4.7054   11.2180 H       1  UNL1        0.0000
     64 H           2.4410    6.1101    3.6692 H       1  UNL1        0.0000
     65 H           3.7839    6.8912    5.8643 H       1  UNL1        0.0000
     66 H           1.3314    3.4769    6.9229 H       1  UNL1        0.0000
     67 H           0.9327    4.0051    4.3243 H       1  UNL1        0.0000
     68 H           1.6291    7.5505    8.7026 H       1  UNL1        0.0000
     69 H           1.3249    6.6442   10.1693 H       1  UNL1        0.0000
     70 H           0.6193    6.1244    8.6551 H       1  UNL1        0.0000
     71 H           3.6584    3.9074   10.5660 H       1  UNL1        0.0000
     72 H           3.4888    3.0127    9.0667 H       1  UNL1        0.0000
     73 H           2.0639    3.5009    9.9633 H       1  UNL1        0.0000
@<TRIPOS>BOND
     1    36    11    1
     2    39    12    1
     3    42    13    1
     4    11    38    1
     5    11    37    1
     6    11    10    1
     7    12    40    1
     8    12    10    1
     9    12    41    1
    10    13    10    1
    11    13    44    1
    12    13    43    1
    13    10     9    1
    14    35     8    1
    15    64    27    1
    16     9     8   ar
    17     9     4   ar
    18    67    31    1
    19     8     7   ar
    20    27    31    1
    21    27    28    2
    22    31    30    2
    23    46    14    1
    24     2     4    1
    25     4     5   ar
    26     7    14    1
    27     7     6   ar
    28    28    65    1
    29    28    29    1
    30    14    47    1
    31    14    45    1
    32    30    29    1
    33    30    66    1
    34     5     6   ar
    35     5    15    1
    36     6    34    1
    37    29     1    1
    38    48    15    1
    39    15    49    1
    40    15    17    1
    41    70    32    1
    42     1     3    1
    43     1    32    1
    44     1    33    1
    45    68    32    1
    46     3    16    1
    47    72    33    1
    48    17    16   ar
    49    17    18   ar
    50    32    69    1
    51    50    18    1
    52    56    24    1
    53    16    21   ar
    54    33    73    1
    55    33    71    1
    56    18    19   ar
    57    57    24    1
    58    24    55    1
    59    24    22    1
    60    21    20   ar
    61    21    22    1
    62    19    20   ar
    63    19    26    1
    64    63    26    1
    65    60    25    1
    66    20    51    1
    67    22    25    1
    68    22    23    1
    69    26    62    1
    70    26    61    1
    71    25    58    1
    72    25    59    1
    73    53    23    1
    74    23    52    1
    75    23    54    1
