@<TRIPOS>MOLECULE
2,3,4,5,6,11
 50 52 0 0 0
SMALL
GASTEIGER

@<TRIPOS>ATOM
      1 SI          4.5990    5.4791    3.8735 Si      1  UNL1        0.0000
      2 O           6.8454    3.5283    3.5962 O.3     1  UNL1        0.0000
      3 C           6.3086    6.2433    3.6592 C.3     1  UNL1        0.0000
      4 C           7.1136    6.8252    4.6801 C.2     1  UNL1        0.0000
      5 C           8.4267    7.0080    4.2195 C.2     1  UNL1        0.0000
      6 C           8.4688    6.6009    2.8516 C.ar    1  UNL1        0.0000
      7 C           9.4902    6.6073    1.8824 C.ar    1  UNL1        0.0000
      8 C           9.2142    6.1269    0.6279 C.ar    1  UNL1        0.0000
      9 C           7.9382    5.6370    0.2929 C.ar    1  UNL1        0.0000
     10 C           6.9114    5.6304    1.2035 C.ar    1  UNL1        0.0000
     11 C           7.1530    6.1187    2.5030 C.ar    1  UNL1        0.0000
     12 C           3.2837    6.5913    3.0507 C.3     1  UNL1        0.0000
     13 C           4.2616    5.2570    5.7413 C.3     1  UNL1        0.0000
     14 C           4.5827    3.7614    3.0422 C.ar    1  UNL1        0.0000
     15 C           3.4473    3.2259    2.4516 C.ar    1  UNL1        0.0000
     16 C           3.4600    1.9720    1.8631 C.ar    1  UNL1        0.0000
     17 C           2.2294    1.4051    1.2217 C.3     1  UNL1        0.0000
     18 C           4.6489    1.2499    1.8517 C.ar    1  UNL1        0.0000
     19 C           5.8186    1.7334    2.4157 C.ar    1  UNL1        0.0000
     20 C           5.7667    3.0030    3.0275 C.ar    1  UNL1        0.0000
     21 C           7.1377    0.9727    2.3679 C.3     1  UNL1        0.0000
     22 C           7.6787    0.7590    3.7916 C.3     1  UNL1        0.0000
     23 C           8.1385    1.7882    1.5318 C.3     1  UNL1        0.0000
     24 C           6.9901   -0.4065    1.7153 C.3     1  UNL1        0.0000
     25 H           6.7453    7.1341    5.6525 H       1  UNL1        0.0000
     26 H           9.2265    7.5098    4.7520 H       1  UNL1        0.0000
     27 H          10.4707    6.9916    2.1300 H       1  UNL1        0.0000
     28 H           9.9865    6.1239   -0.1267 H       1  UNL1        0.0000
     29 H           7.7694    5.2699   -0.7088 H       1  UNL1        0.0000
     30 H           5.9234    5.2799    0.9304 H       1  UNL1        0.0000
     31 H           3.4069    6.6479    1.9743 H       1  UNL1        0.0000
     32 H           2.2872    6.2166    3.2529 H       1  UNL1        0.0000
     33 H           3.3364    7.6015    3.4415 H       1  UNL1        0.0000
     34 H           4.1651    6.2157    6.2427 H       1  UNL1        0.0000
     35 H           3.3402    4.7080    5.9106 H       1  UNL1        0.0000
     36 H           5.0716    4.7063    6.2191 H       1  UNL1        0.0000
     37 H           2.5354    3.8040    2.4572 H       1  UNL1        0.0000
     38 H           2.2669    1.5554    0.1424 H       1  UNL1        0.0000
     39 H           2.1541    0.3360    1.4071 H       1  UNL1        0.0000
     40 H           1.3353    1.8931    1.6008 H       1  UNL1        0.0000
     41 H           4.6413    0.2805    1.3808 H       1  UNL1        0.0000
     42 H           6.9406    0.2349    4.3970 H       1  UNL1        0.0000
     43 H           8.5843    0.1570    3.7522 H       1  UNL1        0.0000
     44 H           7.9248    1.7046    4.2842 H       1  UNL1        0.0000
     45 H           7.7620    1.9157    0.5179 H       1  UNL1        0.0000
     46 H           9.0923    1.2673    1.4853 H       1  UNL1        0.0000
     47 H           8.3128    2.7787    1.9627 H       1  UNL1        0.0000
     48 H           7.9564   -0.9056    1.7122 H       1  UNL1        0.0000
     49 H           6.6557   -0.3217    0.6841 H       1  UNL1        0.0000
     50 H           6.2917   -1.0292    2.2695 H       1  UNL1        0.0000
@<TRIPOS>BOND
     1    29     9    1
     2    28     8    1
     3    38    17    1
     4     9     8   ar
     5     9    10   ar
     6    45    23    1
     7     8     7   ar
     8    49    24    1
     9    30    10    1
    10    10    11   ar
    11    17    39    1
    12    17    40    1
    13    17    16    1
    14    41    18    1
    15    46    23    1
    16    23    47    1
    17    23    21    1
    18    48    24    1
    19    24    50    1
    20    24    21    1
    21    18    16   ar
    22    18    19   ar
    23    16    15   ar
    24     7    27    1
    25     7     6   ar
    26    31    12    1
    27    21    19    1
    28    21    22    1
    29    19    20   ar
    30    15    37    1
    31    15    14   ar
    32    11     6   ar
    33    11     3    1
    34     6     5    1
    35    20    14   ar
    36    20     2    1
    37    14     1    1
    38    12    32    1
    39    12    33    1
    40    12     1    1
    41     3     1    1
    42     3     4    1
    43    43    22    1
    44    22    44    1
    45    22    42    1
    46     1    13    1
    47     5     4    2
    48     5    26    1
    49     4    25    1
    50    13    35    1
    51    13    36    1
    52    13    34    1
