@<TRIPOS>MOLECULE
4,5,6,7,8,9
 62 65 0 0 0
SMALL
GASTEIGER

@<TRIPOS>ATOM
      1 S           5.2485   -0.4832   19.8935 S.2     1  UNL1        0.0000
      2 S           2.1890    1.7640   24.1449 S.2     1  UNL1        0.0000
      3 SI          2.2424    1.9718   20.2974 Si      1  UNL1        0.0000
      4 O           4.0406    3.6129   22.0065 O.3     1  UNL1        0.0000
      5 C           3.2880    0.9928   21.5224 C.3     1  UNL1        0.0000
      6 C           3.2532    1.0891   22.9443 C.ar    1  UNL1        0.0000
      7 C           4.3928    0.4727   23.5471 C.ar    1  UNL1        0.0000
      8 C           5.1837   -0.0517   22.4755 C.ar    1  UNL1        0.0000
      9 C           4.4845    0.2522   21.2681 C.ar    1  UNL1        0.0000
     10 C           3.2630    1.2065   25.4316 C.ar    1  UNL1        0.0000
     11 C           4.3545    0.5494   24.9695 C.ar    1  UNL1        0.0000
     12 H           5.1155    0.1423   25.6143 H       1  UNL1        0.0000
     13 C           6.3518   -0.8313   22.2358 C.ar    1  UNL1        0.0000
     14 H           7.0293   -1.1542   23.0092 H       1  UNL1        0.0000
     15 C           6.5232   -1.1276   20.9227 C.ar    1  UNL1        0.0000
     16 C           1.8887    3.6699   21.0847 C.ar    1  UNL1        0.0000
     17 C           2.8979    4.2728   21.8583 C.ar    1  UNL1        0.0000
     18 C           2.6954    5.5238   22.4772 C.ar    1  UNL1        0.0000
     19 C           1.4782    6.1508   22.2636 C.ar    1  UNL1        0.0000
     20 H           1.2873    7.1135   22.7089 H       1  UNL1        0.0000
     21 C           0.4690    5.5843   21.4930 C.ar    1  UNL1        0.0000
     22 C           0.6853    4.3405   20.9241 C.ar    1  UNL1        0.0000
     23 H          -0.0961    3.8792   20.3400 H       1  UNL1        0.0000
     24 C          -0.8187    6.3191   21.2730 C.3     1  UNL1        0.0000
     25 H          -1.0846    6.9079   22.1479 H       1  UNL1        0.0000
     26 H          -1.6270    5.6259   21.0540 H       1  UNL1        0.0000
     27 H          -0.7190    7.0005   20.4274 H       1  UNL1        0.0000
     28 C           3.7719    6.1049   23.3856 C.3     1  UNL1        0.0000
     29 C           3.9196    5.1715   24.5985 C.3     1  UNL1        0.0000
     30 H           2.9729    5.1032   25.1328 H       1  UNL1        0.0000
     31 H           4.6776    5.5588   25.2761 H       1  UNL1        0.0000
     32 H           4.2202    4.1659   24.2921 H       1  UNL1        0.0000
     33 C           3.4060    7.5002   23.9041 C.3     1  UNL1        0.0000
     34 H           2.5007    7.4735   24.5057 H       1  UNL1        0.0000
     35 H           3.2715    8.2007   23.0832 H       1  UNL1        0.0000
     36 H           4.2126    7.8699   24.5334 H       1  UNL1        0.0000
     37 C           5.1077    6.2243   22.6334 C.3     1  UNL1        0.0000
     38 H           4.9802    6.8345   21.7404 H       1  UNL1        0.0000
     39 H           5.5024    5.2483   22.3345 H       1  UNL1        0.0000
     40 H           5.8468    6.7005   23.2747 H       1  UNL1        0.0000
     41 C           0.6214    0.9973   19.9945 C.3     1  UNL1        0.0000
     42 H           0.8341   -0.0719   20.0264 H       1  UNL1        0.0000
     43 H          -0.0858    1.1951   20.8009 H       1  UNL1        0.0000
     44 C          -0.0394    1.3164   18.6598 C.3     1  UNL1        0.0000
     45 H          -0.2828    2.3728   18.5865 H       1  UNL1        0.0000
     46 H          -0.9599    0.7477   18.5401 H       1  UNL1        0.0000
     47 H           0.6239    1.0641   17.8376 H       1  UNL1        0.0000
     48 C           3.3212    2.2396   18.7321 C.3     1  UNL1        0.0000
     49 H           4.3613    2.3990   19.0373 H       1  UNL1        0.0000
     50 H           3.3128    1.3399   18.1145 H       1  UNL1        0.0000
     51 C           2.8828    3.4336   17.8855 C.3     1  UNL1        0.0000
     52 H           2.9243    4.3495   18.4710 H       1  UNL1        0.0000
     53 H           1.8654    3.3058   17.5255 H       1  UNL1        0.0000
     54 H           3.5378    3.5487   17.0243 H       1  UNL1        0.0000
     55 C           7.6369   -1.8820   20.2908 C.3     1  UNL1        0.0000
     56 H           8.2917   -2.2944   21.0547 H       1  UNL1        0.0000
     57 H           8.2205   -1.2229   19.6474 H       1  UNL1        0.0000
     58 H           7.2515   -2.6939   19.6751 H       1  UNL1        0.0000
     59 C           2.9104    1.5216   26.8408 C.3     1  UNL1        0.0000
     60 H           3.0047    2.5928   27.0226 H       1  UNL1        0.0000
     61 H           3.5767    0.9942   27.5191 H       1  UNL1        0.0000
     62 H           1.8816    1.2345   27.0538 H       1  UNL1        0.0000
@<TRIPOS>BOND
     1    54    51    1
     2    53    51    1
     3    47    44    1
     4    51    52    1
     5    51    48    1
     6    50    48    1
     7    46    44    1
     8    45    44    1
     9    44    41    1
    10    48    49    1
    11    48     3    1
    12    57    55    1
    13    58    55    1
    14     1    15   ar
    15     1     9   ar
    16    41    42    1
    17    41     3    1
    18    41    43    1
    19    55    15    1
    20    55    56    1
    21     3    16    1
    22     3     5    1
    23    23    22    1
    24    27    24    1
    25    15    13   ar
    26    22    16   ar
    27    22    21   ar
    28    26    24    1
    29    16    17   ar
    30     9     5    1
    31     9     8   ar
    32    24    21    1
    33    24    25    1
    34    21    19   ar
    35     5     6    1
    36    38    37    1
    37    17     4    1
    38    17    18   ar
    39    13     8   ar
    40    13    14    1
    41    19    18   ar
    42    19    20    1
    43    39    37    1
    44     8     7    1
    45    18    28    1
    46    37    40    1
    47    37    28    1
    48     6     7   ar
    49     6     2   ar
    50    35    33    1
    51    28    33    1
    52    28    29    1
    53     7    11   ar
    54    33    34    1
    55    33    36    1
    56     2    10   ar
    57    32    29    1
    58    29    30    1
    59    29    31    1
    60    11    10   ar
    61    11    12    1
    62    10    59    1
    63    59    60    1
    64    59    62    1
    65    59    61    1
