@<TRIPOS>MOLECULE
3,4,5,6,7,8
 62 64 0 0 0
SMALL
GASTEIGER

@<TRIPOS>ATOM
      1 S          23.8255    0.9085    6.4087 S.2     1  UNL1        0.0000
      2 SI         22.4651    3.6013    8.8128 Si      1  UNL1        0.0000
      3 O          22.2407    1.4713   10.8753 O.3     1  UNL1        0.0000
      4 C          21.7247    1.9858    8.1845 C.3     1  UNL1        0.0000
      5 C          20.5180    1.3390    8.6234 C.3     1  UNL1        0.0000
      6 C          20.4949   -0.0071    8.1682 C.3     1  UNL1        0.0000
      7 C          21.6935   -0.2189    7.4242 C.ar    1  UNL1        0.0000
      8 C          22.4237    1.0032    7.4294 C.ar    1  UNL1        0.0000
      9 C          19.3924    2.0070    9.3593 C.3     1  UNL1        0.0000
     10 H          18.5677    2.2122    8.6726 H       1  UNL1        0.0000
     11 H          19.7198    2.9511    9.7936 H       1  UNL1        0.0000
     12 H          19.0128    1.3644   10.1573 H       1  UNL1        0.0000
     13 C          19.3449   -0.9602    8.2972 C.3     1  UNL1        0.0000
     14 H          18.5425   -0.6725    7.6129 H       1  UNL1        0.0000
     15 H          18.9454   -0.9599    9.3125 H       1  UNL1        0.0000
     16 H          19.6607   -1.9730    8.0538 H       1  UNL1        0.0000
     17 C          22.3303   -1.2208    6.6306 C.ar    1  UNL1        0.0000
     18 H          21.9551   -2.2236    6.5053 H       1  UNL1        0.0000
     19 C          23.4657   -0.7755    6.0396 C.ar    1  UNL1        0.0000
     20 C          22.1380    3.7994   10.6785 C.ar    1  UNL1        0.0000
     21 C          22.1060    2.6445   11.4796 C.ar    1  UNL1        0.0000
     22 C          21.9196    2.7288   12.8758 C.ar    1  UNL1        0.0000
     23 C          21.7900    3.9937   13.4256 C.ar    1  UNL1        0.0000
     24 H          21.6558    4.1047   14.4893 H       1  UNL1        0.0000
     25 C          21.8230    5.1528   12.6563 C.ar    1  UNL1        0.0000
     26 C          21.9897    5.0376   11.2869 C.ar    1  UNL1        0.0000
     27 H          22.0106    5.9247   10.6718 H       1  UNL1        0.0000
     28 C          21.6931    6.4925   13.3162 C.3     1  UNL1        0.0000
     29 H          20.8534    6.5007   14.0086 H       1  UNL1        0.0000
     30 H          21.5471    7.2758   12.5772 H       1  UNL1        0.0000
     31 H          22.5949    6.7203   13.8844 H       1  UNL1        0.0000
     32 C          21.8347    1.4549   13.7072 C.3     1  UNL1        0.0000
     33 C          21.6904    1.7447   15.2053 C.3     1  UNL1        0.0000
     34 H          20.7764    2.2952   15.4151 H       1  UNL1        0.0000
     35 H          22.5424    2.3072   15.5796 H       1  UNL1        0.0000
     36 H          21.6444    0.8032   15.7482 H       1  UNL1        0.0000
     37 C          20.5961    0.6643   13.2550 C.3     1  UNL1        0.0000
     38 H          19.6972    1.2620   13.4013 H       1  UNL1        0.0000
     39 H          20.5054   -0.2489   13.8391 H       1  UNL1        0.0000
     40 H          20.6667    0.3866   12.2001 H       1  UNL1        0.0000
     41 C          23.1052    0.6106   13.5147 C.3     1  UNL1        0.0000
     42 H          23.0622   -0.2676   14.1558 H       1  UNL1        0.0000
     43 H          23.9853    1.1928   13.7831 H       1  UNL1        0.0000
     44 H          23.2170    0.2680   12.4818 H       1  UNL1        0.0000
     45 C          21.7006    5.0658    7.8451 C.3     1  UNL1        0.0000
     46 H          20.6462    5.1885    8.0942 H       1  UNL1        0.0000
     47 H          22.1977    5.9885    8.1388 H       1  UNL1        0.0000
     48 C          21.8390    4.8857    6.3374 C.3     1  UNL1        0.0000
     49 H          21.3904    5.7216    5.8040 H       1  UNL1        0.0000
     50 H          21.3482    3.9706    6.0155 H       1  UNL1        0.0000
     51 H          22.8864    4.8242    6.0553 H       1  UNL1        0.0000
     52 C          24.3686    3.4914    8.5944 C.3     1  UNL1        0.0000
     53 H          24.7344    2.5938    9.1053 H       1  UNL1        0.0000
     54 H          24.6177    3.3702    7.5389 H       1  UNL1        0.0000
     55 C          25.1076    4.7115    9.1392 C.3     1  UNL1        0.0000
     56 H          24.8925    4.8502   10.1962 H       1  UNL1        0.0000
     57 H          24.8047    5.6112    8.6088 H       1  UNL1        0.0000
     58 H          26.1826    4.5926    9.0209 H       1  UNL1        0.0000
     59 C          24.4091   -1.5328    5.1760 C.3     1  UNL1        0.0000
     60 H          24.0068   -2.5185    4.9544 H       1  UNL1        0.0000
     61 H          25.3681   -1.6515    5.6812 H       1  UNL1        0.0000
     62 H          24.5873   -1.0016    4.2418 H       1  UNL1        0.0000
@<TRIPOS>BOND
     1    62    59    1
     2    60    59    1
     3    59    61    1
     4    59    19    1
     5    49    48    1
     6    50    48    1
     7    19     1   ar
     8    19    17   ar
     9    51    48    1
    10    48    45    1
    11     1     8   ar
    12    18    17    1
    13    17     7   ar
    14     7     8   ar
    15     7     6    1
    16     8     4    1
    17    54    52    1
    18    14    13    1
    19    45    46    1
    20    45    47    1
    21    45     2    1
    22    16    13    1
    23     6    13    1
    24     6     5    1
    25     4     5    1
    26     4     2    1
    27    13    15    1
    28    52     2    1
    29    52    53    1
    30    52    55    1
    31    57    55    1
    32     5     9    1
    33    10     9    1
    34     2    20    1
    35    58    55    1
    36    55    56    1
    37     9    11    1
    38     9    12    1
    39    27    26    1
    40    20    26   ar
    41    20    21   ar
    42     3    21    1
    43    26    25   ar
    44    21    22   ar
    45    40    37    1
    46    44    41    1
    47    30    28    1
    48    25    28    1
    49    25    23   ar
    50    22    23   ar
    51    22    32    1
    52    37    38    1
    53    37    32    1
    54    37    39    1
    55    28    31    1
    56    28    29    1
    57    23    24    1
    58    41    32    1
    59    41    43    1
    60    41    42    1
    61    32    33    1
    62    33    34    1
    63    33    35    1
    64    33    36    1
