@<TRIPOS>MOLECULE
1,2
 58 59 0 0 0
SMALL
GASTEIGER

@<TRIPOS>ATOM
      1 O          11.9025   10.5905    7.3319 O.3     1  UNL1       -0.2869
      2 O           9.8297    8.8614    9.8982 O.3     1  UNL1       -0.2869
      3 C          10.7346    7.9757    9.4767 C.ar    1  UNL1        0.1907
      4 C          12.0132    8.5131    9.1717 C.ar    1  UNL1        0.0362
      5 C          13.0335    7.7118    8.6613 C.ar    1  UNL1       -0.0360
      6 C          12.7656    6.3583    8.4512 C.ar    1  UNL1       -0.0465
      7 C          11.5276    5.8345    8.8084 C.ar    1  UNL1       -0.0512
      8 H          11.3792    4.7762    8.6627 H       1  UNL1        0.0624
      9 C          10.4925    6.5970    9.3294 C.ar    1  UNL1        0.0055
     10 C          12.2451   10.9530    8.5477 C.ar    1  UNL1        0.1907
     11 C          12.2208    9.9503    9.5710 C.ar    1  UNL1        0.0362
     12 C          12.5106   10.2777   10.9065 C.ar    1  UNL1       -0.0360
     13 C          12.8249   11.5949   11.2213 C.ar    1  UNL1       -0.0465
     14 C          12.9436   12.5389   10.2012 C.ar    1  UNL1       -0.0512
     15 H          13.2567   13.5310   10.4856 H       1  UNL1        0.0624
     16 C          12.6886   12.2647    8.8728 C.ar    1  UNL1        0.0055
     17 C          14.3843    8.2884    8.3568 C.3     1  UNL1       -0.0388
     18 H          15.1643    7.7248    8.8691 H       1  UNL1        0.0278
     19 H          14.4426    9.3299    8.6674 H       1  UNL1        0.0278
     20 H          14.5852    8.2382    7.2863 H       1  UNL1        0.0278
     21 C          13.8175    5.4595    7.8720 C.3     1  UNL1       -0.0394
     22 H          14.1549    5.8346    6.9061 H       1  UNL1        0.0278
     23 H          13.4310    4.4524    7.7365 H       1  UNL1        0.0278
     24 H          14.6867    5.4089    8.5285 H       1  UNL1        0.0278
     25 C           9.1620    6.0056    9.7742 C.3     1  UNL1       -0.0090
     26 C           8.0407    6.5886    8.9041 C.3     1  UNL1       -0.0559
     27 H           8.1930    6.3053    7.8632 H       1  UNL1        0.0238
     28 H           8.0297    7.6792    8.9707 H       1  UNL1        0.0238
     29 H           7.0734    6.2101    9.2310 H       1  UNL1        0.0238
     30 C           8.9250    6.3802   11.2447 C.3     1  UNL1       -0.0559
     31 H           7.9755    5.9734   11.5870 H       1  UNL1        0.0238
     32 H           8.9020    7.4611   11.3629 H       1  UNL1        0.0238
     33 H           9.7203    5.9763   11.8694 H       1  UNL1        0.0238
     34 C           9.1235    4.4793    9.6542 C.3     1  UNL1       -0.0559
     35 H           8.1621    4.1167   10.0131 H       1  UNL1        0.0238
     36 H           9.9036    4.0185   10.2565 H       1  UNL1        0.0238
     37 H           9.2360    4.1605    8.6201 H       1  UNL1        0.0238
     38 C          12.4907    9.2243   11.9775 C.3     1  UNL1       -0.0388
     39 H          13.3897    9.2830   12.5898 H       1  UNL1        0.0278
     40 H          12.4246    8.2257   11.5505 H       1  UNL1        0.0278
     41 H          11.6295    9.3733   12.6305 H       1  UNL1        0.0278
     42 C          13.0821   12.0007   12.6427 C.3     1  UNL1       -0.0394
     43 H          13.2319   13.0750   12.7122 H       1  UNL1        0.0278
     44 H          13.9711   11.5059   13.0351 H       1  UNL1        0.0278
     45 H          12.2409   11.7248   13.2767 H       1  UNL1        0.0278
     46 C          12.9355   13.2707    7.7562 C.3     1  UNL1       -0.0090
     47 C          11.6223   13.5651    7.0215 C.3     1  UNL1       -0.0559
     48 H          11.8106   14.2088    6.1646 H       1  UNL1        0.0238
     49 H          10.9255   14.0685    7.6873 H       1  UNL1        0.0238
     50 H          11.1646   12.6392    6.6765 H       1  UNL1        0.0238
     51 C          13.9449   12.6557    6.7755 C.3     1  UNL1       -0.0559
     52 H          13.5419   11.7380    6.3556 H       1  UNL1        0.0238
     53 H          14.8798   12.4294    7.2859 H       1  UNL1        0.0238
     54 H          14.1520   13.3497    5.9635 H       1  UNL1        0.0238
     55 C          13.5097   14.5948    8.2689 C.3     1  UNL1       -0.0559
     56 H          14.4596   14.4422    8.7766 H       1  UNL1        0.0238
     57 H          12.8170   15.0880    8.9469 H       1  UNL1        0.0238
     58 H          13.6820   15.2590    7.4244 H       1  UNL1        0.0238
@<TRIPOS>BOND
     1    54    51    1
     2    48    47    1
     3    52    51    1
     4    50    47    1
     5    51    53    1
     6    51    46    1
     7    22    21    1
     8    47    49    1
     9    47    46    1
    10    20    17    1
    11     1    10    1
    12    58    55    1
    13    23    21    1
    14    46    55    1
    15    46    16    1
    16    27    26    1
    17    21     6    1
    18    21    24    1
    19    55    56    1
    20    55    57    1
    21    17     5    1
    22    17    19    1
    23    17    18    1
    24     6     5   ar
    25     6     7   ar
    26    10    16   ar
    27    10    11   ar
    28    37    34    1
    29     5     4   ar
    30     8     7    1
    31     7     9   ar
    32    16    14   ar
    33    26    28    1
    34    26    29    1
    35    26    25    1
    36     4     3   ar
    37     4    11    1
    38     9     3   ar
    39     9    25    1
    40     3     2    1
    41    11    12   ar
    42    34    25    1
    43    34    35    1
    44    34    36    1
    45    25    30    1
    46    14    15    1
    47    14    13   ar
    48    12    13   ar
    49    12    38    1
    50    13    42    1
    51    30    32    1
    52    30    31    1
    53    30    33    1
    54    40    38    1
    55    38    39    1
    56    38    41    1
    57    42    43    1
    58    42    44    1
    59    42    45    1
