@<TRIPOS>MOLECULE
1,2
 16 15 0 0 0
SMALL
GASTEIGER

@<TRIPOS>ATOM
      1 O           4.8991   19.9492   12.2479 O.3     1  UNL1       -0.3807
      2 O           4.5510   21.0216   14.7541 O.3     1  UNL1       -0.3807
      3 C           5.9358   20.7245   12.8288 C.3     1  UNL1        0.0706
      4 H           5.8176   21.7759   12.5330 H       1  UNL1        0.0582
      5 H           6.9164   20.3533   12.4924 H       1  UNL1        0.0582
      6 C           5.8440   20.6098   14.3465 C.3     1  UNL1        0.0706
      7 H           6.0177   19.5692   14.6547 H       1  UNL1        0.0582
      8 H           6.6095   21.2575   14.7970 H       1  UNL1        0.0582
      9 C           5.0274   19.8761   10.8402 C.3     1  UNL1        0.0365
     10 H           4.9771   20.8725   10.3887 H       1  UNL1        0.0524
     11 H           4.1954   19.2747   10.4791 H       1  UNL1        0.0524
     12 H           5.9776   19.4006   10.5645 H       1  UNL1        0.0524
     13 C           4.5066   21.4096   16.1199 C.3     1  UNL1        0.0365
     14 H           4.8602   20.6060   16.7748 H       1  UNL1        0.0524
     15 H           3.4616   21.6325   16.3328 H       1  UNL1        0.0524
     16 H           5.1207   22.3021   16.2874 H       1  UNL1        0.0524
@<TRIPOS>BOND
     1    10     9    1
     2    11     9    1
     3    12     9    1
     4     9     1    1
     5     1     3    1
     6     5     3    1
     7     4     3    1
     8     3     6    1
     9     6     7    1
    10     6     2    1
    11     6     8    1
    12     2    13    1
    13    13    16    1
    14    13    15    1
    15    13    14    1
