@<TRIPOS>MOLECULE
5,6
 55 56 0 0 0
SMALL
GASTEIGER

@<TRIPOS>ATOM
      1 P           2.9280    3.1467   13.5720 P.3     1  UNL1        0.0000
      2 SI          0.7152    5.0308   12.8279 Si      1  UNL1        0.0000
      3 H          -0.3692    5.9805   13.1375 H       1  UNL1        0.0000
      4 SI          0.9647    4.2785   15.9419 Si      1  UNL1        0.0000
      5 O           0.1119    4.0696   11.5683 O.3     1  UNL1        0.0000
      6 O           1.6674    5.8249   11.6727 O.3     1  UNL1        0.0000
      7 C          -0.9887    3.2284   11.8316 C.3     1  UNL1        0.0000
      8 H          -0.8804    2.3271   11.2212 H       1  UNL1        0.0000
      9 H          -0.9743    2.9485   12.8911 H       1  UNL1        0.0000
     10 C          -2.3039    3.9107   11.4844 C.3     1  UNL1        0.0000
     11 H          -2.2538    4.2603   10.4532 H       1  UNL1        0.0000
     12 H          -2.4753    4.7537   12.1490 H       1  UNL1        0.0000
     13 H          -3.1285    3.2096   11.5844 H       1  UNL1        0.0000
     14 C           2.6989    6.6621   12.1457 C.3     1  UNL1        0.0000
     15 H           3.3091    6.9479   11.2843 H       1  UNL1        0.0000
     16 H           3.3189    6.0921   12.8469 H       1  UNL1        0.0000
     17 C           2.1695    7.9078   12.8381 C.3     1  UNL1        0.0000
     18 H           1.4855    8.4387   12.1795 H       1  UNL1        0.0000
     19 H           2.9962    8.5666   13.0893 H       1  UNL1        0.0000
     20 H           1.6492    7.6275   13.7491 H       1  UNL1        0.0000
     21 C           1.5960    4.2000   14.1835 C.3     1  UNL1        0.0000
     22 C           0.7467    6.1205   16.4334 C.3     1  UNL1        0.0000
     23 H           1.6924    6.6509   16.4751 H       1  UNL1        0.0000
     24 H           0.2804    6.2115   17.4090 H       1  UNL1        0.0000
     25 H           0.1133    6.6330   15.7170 H       1  UNL1        0.0000
     26 C          -0.7886    3.5164   16.1041 C.3     1  UNL1        0.0000
     27 H          -1.4549    3.9307   15.3529 H       1  UNL1        0.0000
     28 H          -1.2220    3.7217   17.0779 H       1  UNL1        0.0000
     29 H          -0.7713    2.4392   15.9753 H       1  UNL1        0.0000
     30 C           2.0828    3.4590   17.2534 C.3     1  UNL1        0.0000
     31 H           1.9188    2.3877   17.2960 H       1  UNL1        0.0000
     32 H           1.8857    3.8637   18.2418 H       1  UNL1        0.0000
     33 H           3.1330    3.6186   17.0343 H       1  UNL1        0.0000
     34 C           2.7428    1.6556   14.6390 C.ar    1  UNL1        0.0000
     35 C           3.7555    1.0567   15.3785 C.ar    1  UNL1        0.0000
     36 H           4.7384    1.5017   15.4154 H       1  UNL1        0.0000
     37 C           3.5115   -0.0972   16.1025 C.ar    1  UNL1        0.0000
     38 H           4.3077   -0.5393   16.6857 H       1  UNL1        0.0000
     39 C           2.2581   -0.6838   16.0911 C.ar    1  UNL1        0.0000
     40 H           2.0715   -1.5832   16.6603 H       1  UNL1        0.0000
     41 C           1.2433   -0.1031   15.3476 C.ar    1  UNL1        0.0000
     42 H           0.2592   -0.5516   15.3322 H       1  UNL1        0.0000
     43 C           1.4882    1.0500   14.6297 C.ar    1  UNL1        0.0000
     44 H           0.6902    1.5125   14.0647 H       1  UNL1        0.0000
     45 C           4.4540    3.8607   14.3307 C.ar    1  UNL1        0.0000
     46 C           4.4499    5.0513   15.0452 C.ar    1  UNL1        0.0000
     47 H           3.5045    5.5368   15.2420 H       1  UNL1        0.0000
     48 C           5.6333    5.6005   15.5058 C.ar    1  UNL1        0.0000
     49 H           5.6144    6.5225   16.0706 H       1  UNL1        0.0000
     50 C           6.8406    4.9730   15.2479 C.ar    1  UNL1        0.0000
     51 H           7.7643    5.4010   15.6105 H       1  UNL1        0.0000
     52 C           6.8584    3.7974   14.5147 C.ar    1  UNL1        0.0000
     53 H           7.7991    3.3080   14.3018 H       1  UNL1        0.0000
     54 C           5.6757    3.2532   14.0502 C.ar    1  UNL1        0.0000
     55 H           5.6884    2.3504   13.4559 H       1  UNL1        0.0000
@<TRIPOS>BOND
     1    11    10    1
     2     8     7    1
     3    15    14    1
     4    10    13    1
     5    10     7    1
     6    10    12    1
     7     5     7    1
     8     5     2    1
     9     6    14    1
    10     6     2    1
    11     7     9    1
    12    14    17    1
    13    14    16    1
    14    18    17    1
    15     2     3    1
    16     2    21    1
    17    17    19    1
    18    17    20    1
    19    55    54    1
    20     1    21    1
    21     1    45    1
    22     1    34    1
    23    54    45   ar
    24    54    52   ar
    25    44    43    1
    26    21     4    1
    27    53    52    1
    28    45    46   ar
    29    52    50   ar
    30    43    34   ar
    31    43    41   ar
    32    34    35   ar
    33    46    47    1
    34    46    48   ar
    35    50    48   ar
    36    50    51    1
    37    42    41    1
    38    41    39   ar
    39    27    26    1
    40    35    36    1
    41    35    37   ar
    42    48    49    1
    43    25    22    1
    44     4    26    1
    45     4    22    1
    46     4    30    1
    47    29    26    1
    48    39    37   ar
    49    39    40    1
    50    37    38    1
    51    26    28    1
    52    22    23    1
    53    22    24    1
    54    33    30    1
    55    30    31    1
    56    30    32    1
