@<TRIPOS>MOLECULE
2,36
 37 39 0 0 0
SMALL
GASTEIGER

@<TRIPOS>ATOM
      1 SI        -11.1278    5.6206   14.4001 Si      1  UNL1        0.0000
      2 O         -11.4723    4.2031   15.2568 O.3     1  UNL1        0.0000
      3 C         -12.4948    6.8342   14.8976 C.ar    1  UNL1        0.0000
      4 C         -13.7859    6.3615   15.1372 C.ar    1  UNL1        0.0000
      5 C         -14.8383    7.2401   15.3256 C.ar    1  UNL1        0.0000
      6 C         -14.6156    8.6063   15.3056 C.ar    1  UNL1        0.0000
      7 C         -13.3376    9.0902   15.0862 C.ar    1  UNL1        0.0000
      8 C         -12.2928    8.2104   14.8719 C.ar    1  UNL1        0.0000
      9 C          -9.3301    6.0676   14.7762 C.ar    1  UNL1        0.0000
     10 C          -8.7739    7.2625   14.3270 C.ar    1  UNL1        0.0000
     11 C          -7.4509    7.5756   14.5793 C.ar    1  UNL1        0.0000
     12 C          -6.6517    6.6906   15.2836 C.ar    1  UNL1        0.0000
     13 C          -7.1834    5.4917   15.7287 C.ar    1  UNL1        0.0000
     14 C          -8.5084    5.1847   15.4769 C.ar    1  UNL1        0.0000
     15 C         -11.3720    5.1868   12.5636 C.ar    1  UNL1        0.0000
     16 C         -12.3479    4.2578   12.1989 C.ar    1  UNL1        0.0000
     17 C         -12.5541    3.9265   10.8724 C.ar    1  UNL1        0.0000
     18 C         -11.7907    4.5199    9.8813 C.ar    1  UNL1        0.0000
     19 C         -10.8202    5.4459   10.2248 C.ar    1  UNL1        0.0000
     20 C         -10.6162    5.7754   11.5524 C.ar    1  UNL1        0.0000
     21 H         -13.9759    5.2930   15.1478 H       1  UNL1        0.0000
     22 H         -15.8366    6.8599   15.4760 H       1  UNL1        0.0000
     23 H         -15.4386    9.2895   15.4545 H       1  UNL1        0.0000
     24 H         -13.1568   10.1550   15.0684 H       1  UNL1        0.0000
     25 H         -11.3024    8.5953   14.6891 H       1  UNL1        0.0000
     26 H          -9.3868    7.9550   13.7697 H       1  UNL1        0.0000
     27 H          -7.0399    8.5095   14.2240 H       1  UNL1        0.0000
     28 H          -5.6179    6.9333   15.4818 H       1  UNL1        0.0000
     29 H          -6.5658    4.7952   16.2762 H       1  UNL1        0.0000
     30 H          -8.9125    4.2451   15.8304 H       1  UNL1        0.0000
     31 H         -12.9540    3.7847   12.9604 H       1  UNL1        0.0000
     32 H         -13.3131    3.2035   10.6122 H       1  UNL1        0.0000
     33 H         -11.9503    4.2603    8.8449 H       1  UNL1        0.0000
     34 H         -10.2198    5.9098    9.4556 H       1  UNL1        0.0000
     35 H          -9.8521    6.4916   11.8139 H       1  UNL1        0.0000
     36 O         -11.2539    2.0139   15.0817 O.3     1  UNL1        0.0000
     37 C         -10.7542    3.0578   14.6280 C.3     1  UNL1        0.0000
@<TRIPOS>BOND
     1    33    18    1
     2    34    19    1
     3    18    19   ar
     4    18    17   ar
     5    19    20   ar
     6    32    17    1
     7    17    16   ar
     8    20    35    1
     9    20    15   ar
    10    16    15   ar
    11    16    31    1
    12    15     1    1
    13    26    10    1
    14    27    11    1
    15    10    11   ar
    16    10     9   ar
    17     1     9    1
    18     1     3    1
    19     1     2    1
    20    11    12   ar
    21    37    36    1
    22    37     2    1
    23    25     8    1
    24     9    14   ar
    25     8     3   ar
    26     8     7   ar
    27     3     4   ar
    28    24     7    1
    29     7     6   ar
    30     4    21    1
    31     4     5   ar
    32    12    28    1
    33    12    13   ar
    34     6     5   ar
    35     6    23    1
    36     5    22    1
    37    14    13   ar
    38    14    30    1
    39    13    29    1
