@<TRIPOS>MOLECULE
1,3
 37 39 0 0 0
SMALL
GASTEIGER

@<TRIPOS>ATOM
      1 O         -13.5531    2.0098   17.9120 O.3     1  UNL1        0.0000
      2 C         -14.0448    3.0531   18.3761 C.3     1  UNL1        0.0000
      3 O         -13.3271    4.1985   17.7492 O.3     1  UNL1        0.0000
      4 SI        -13.6670    5.6173   18.6062 Si      1  UNL1        0.0000
      5 C         -12.2973    6.8259   18.1037 C.ar    1  UNL1        0.0000
      6 C         -15.4629    6.0708   18.2298 C.ar    1  UNL1        0.0000
      7 C         -13.4229    5.1829   20.4424 C.ar    1  UNL1        0.0000
      8 C         -11.0062    6.3494   17.8712 C.ar    1  UNL1        0.0000
      9 C         -12.4977    8.2026   18.1164 C.ar    1  UNL1        0.0000
     10 C         -16.0145    7.2679   18.6788 C.ar    1  UNL1        0.0000
     11 C         -16.2877    5.1911   17.5288 C.ar    1  UNL1        0.0000
     12 C         -12.4428    4.2582   20.8069 C.ar    1  UNL1        0.0000
     13 C         -14.1829    5.7663   21.4535 C.ar    1  UNL1        0.0000
     14 C          -9.9523    7.2250   17.6774 C.ar    1  UNL1        0.0000
     15 H         -10.8174    5.2807   17.8705 H       1  UNL1        0.0000
     16 C         -11.4516    9.0791   17.8952 C.ar    1  UNL1        0.0000
     17 H         -13.4881    8.5904   18.2932 H       1  UNL1        0.0000
     18 C         -17.3361    7.5862   18.4259 C.ar    1  UNL1        0.0000
     19 H         -15.3989    7.9578   19.2364 H       1  UNL1        0.0000
     20 C         -17.6114    5.5032   17.2765 C.ar    1  UNL1        0.0000
     21 H         -15.8872    4.2497   17.1757 H       1  UNL1        0.0000
     22 C         -12.2359    3.9268   22.1333 C.ar    1  UNL1        0.0000
     23 H         -11.8342    3.7884   20.0454 H       1  UNL1        0.0000
     24 C         -13.9784    5.4364   22.7810 C.ar    1  UNL1        0.0000
     25 H         -14.9506    6.4787   21.1920 H       1  UNL1        0.0000
     26 C         -10.1737    8.5915   17.6832 C.ar    1  UNL1        0.0000
     27 H          -8.9540    6.8423   17.5335 H       1  UNL1        0.0000
     28 H         -11.6313   10.1442   17.9018 H       1  UNL1        0.0000
     29 C         -18.1385    6.7043   17.7213 C.ar    1  UNL1        0.0000
     30 H         -17.7435    8.5219   18.7806 H       1  UNL1        0.0000
     31 H         -18.2317    4.8090   16.7291 H       1  UNL1        0.0000
     32 C         -13.0031    4.5155   23.1243 C.ar    1  UNL1        0.0000
     33 H         -11.4735    3.2075   22.3935 H       1  UNL1        0.0000
     34 H         -14.5821    5.8960   23.5500 H       1  UNL1        0.0000
     35 H          -9.3495    9.2723   17.5288 H       1  UNL1        0.0000
     36 H         -19.1712    6.9510   17.5227 H       1  UNL1        0.0000
     37 H         -12.8430    4.2557   24.1606 H       1  UNL1        0.0000
@<TRIPOS>BOND
     1    31    20    1
     2    21    11    1
     3    20    11   ar
     4    20    29   ar
     5    36    29    1
     6    11     6   ar
     7    35    26    1
     8    27    14    1
     9    14    26   ar
    10    14     8   ar
    11    26    16   ar
    12    29    18   ar
    13     3     2    1
    14     3     4    1
    15    15     8    1
    16     8     5   ar
    17    16    28    1
    18    16     9   ar
    19     1     2    1
    20     5     9   ar
    21     5     4    1
    22     9    17    1
    23     6     4    1
    24     6    10   ar
    25    18    10   ar
    26    18    30    1
    27     4     7    1
    28    10    19    1
    29    23    12    1
    30     7    12   ar
    31     7    13   ar
    32    12    22   ar
    33    25    13    1
    34    13    24   ar
    35    22    33    1
    36    22    32   ar
    37    24    32   ar
    38    24    34    1
    39    32    37    1
