@<TRIPOS>MOLECULE
4,7
 73 78 0 0 0
SMALL
GASTEIGER

@<TRIPOS>ATOM
      1 SI         -2.3195    2.3332    9.6179 Si      1  UNL1        0.0000
      2 SI          0.7433    2.1694    9.9469 Si      1  UNL1        0.0000
      3 SI          0.6520    0.6297    7.2818 Si      1  UNL1        0.0000
      4 O          -2.7397    2.5940    8.1160 O.3     1  UNL1        0.0000
      5 O          -0.7444    2.7898    9.8390 O.3     1  UNL1        0.0000
      6 O           1.2389    1.4435    8.5911 O.3     1  UNL1        0.0000
      7 O          -0.8035    1.1132    6.8741 O.3     1  UNL1        0.0000
      8 C          -2.5430   -0.4623    9.1411 C.ar    1  UNL1        0.0000
      9 C          -2.6782   -1.8008    9.4672 C.ar    1  UNL1        0.0000
     10 C          -2.8218   -2.1807   10.7917 C.ar    1  UNL1        0.0000
     11 C          -2.8364   -1.2181   11.7862 C.ar    1  UNL1        0.0000
     12 C          -2.6988    0.1184   11.4553 C.ar    1  UNL1        0.0000
     13 C          -2.5432    0.5187   10.1317 C.ar    1  UNL1        0.0000
     14 C          -4.4971    3.9952   10.5078 C.ar    1  UNL1        0.0000
     15 C          -5.1862    4.7933   11.4040 C.ar    1  UNL1        0.0000
     16 C          -4.6332    5.0818   12.6402 C.ar    1  UNL1        0.0000
     17 C          -3.3891    4.5697   12.9695 C.ar    1  UNL1        0.0000
     18 C          -2.7090    3.7721   12.0665 C.ar    1  UNL1        0.0000
     19 C          -3.2477    3.4705   10.8199 C.ar    1  UNL1        0.0000
     20 C           1.2817    1.3949   12.6577 C.ar    1  UNL1        0.0000
     21 C           1.3222    0.5366   13.7417 C.ar    1  UNL1        0.0000
     22 C           0.9225   -0.7814   13.5965 C.ar    1  UNL1        0.0000
     23 C           0.4814   -1.2294   12.3635 C.ar    1  UNL1        0.0000
     24 C           0.4346   -0.3625   11.2865 C.ar    1  UNL1        0.0000
     25 C           0.8366    0.9654   11.4092 C.ar    1  UNL1        0.0000
     26 C           1.4544    4.7177   11.0323 C.ar    1  UNL1        0.0000
     27 C           2.2904    5.7865   11.3026 C.ar    1  UNL1        0.0000
     28 C           3.5734    5.8108   10.7811 C.ar    1  UNL1        0.0000
     29 C           4.0095    4.7621    9.9885 C.ar    1  UNL1        0.0000
     30 C           3.1663    3.6968    9.7263 C.ar    1  UNL1        0.0000
     31 C           1.8740    3.6553   10.2376 C.ar    1  UNL1        0.0000
     32 C           3.2795    1.2549    6.2210 C.ar    1  UNL1        0.0000
     33 C           4.1894    1.5432    5.2190 C.ar    1  UNL1        0.0000
     34 C           3.7750    1.5867    3.8978 C.ar    1  UNL1        0.0000
     35 C           2.4487    1.3350    3.5868 C.ar    1  UNL1        0.0000
     36 C           1.5457    1.0469    4.5955 C.ar    1  UNL1        0.0000
     37 C           1.9405    1.0097    5.9311 C.ar    1  UNL1        0.0000
     38 C          -0.2067   -2.1011    7.0748 C.ar    1  UNL1        0.0000
     39 C          -0.1787   -3.4582    7.3415 C.ar    1  UNL1        0.0000
     40 C           0.7552   -3.9714    8.2256 C.ar    1  UNL1        0.0000
     41 C           1.6655   -3.1202    8.8291 C.ar    1  UNL1        0.0000
     42 C           1.6358   -1.7652    8.5516 C.ar    1  UNL1        0.0000
     43 C           0.6914   -1.2274    7.6810 C.ar    1  UNL1        0.0000
     44 H          -2.4334   -0.1480    8.1061 H       1  UNL1        0.0000
     45 H          -2.6712   -2.5543    8.6936 H       1  UNL1        0.0000
     46 H          -2.9261   -3.2258   11.0463 H       1  UNL1        0.0000
     47 H          -2.9521   -1.5093   12.8204 H       1  UNL1        0.0000
     48 H          -2.7109    0.8664   12.2348 H       1  UNL1        0.0000
     49 H          -4.9309    3.7673    9.5449 H       1  UNL1        0.0000
     50 H          -6.1576    5.1887   11.1413 H       1  UNL1        0.0000
     51 H          -5.1692    5.7020   13.3446 H       1  UNL1        0.0000
     52 H          -2.9530    4.7912   13.9336 H       1  UNL1        0.0000
     53 H          -1.7380    3.3727   12.3220 H       1  UNL1        0.0000
     54 H           1.6050    2.4197   12.7744 H       1  UNL1        0.0000
     55 H           1.6691    0.8936   14.7011 H       1  UNL1        0.0000
     56 H           0.9576   -1.4550   14.4409 H       1  UNL1        0.0000
     57 H           0.1684   -2.2557   12.2372 H       1  UNL1        0.0000
     58 H           0.0845   -0.7210   10.3312 H       1  UNL1        0.0000
     59 H           0.4521    4.7008   11.4341 H       1  UNL1        0.0000
     60 H           1.9459    6.6010   11.9244 H       1  UNL1        0.0000
     61 H           4.2307    6.6421   10.9934 H       1  UNL1        0.0000
     62 H           5.0104    4.7750    9.5806 H       1  UNL1        0.0000
     63 H           3.5048    2.8779    9.1109 H       1  UNL1        0.0000
     64 H           3.6031    1.2194    7.2504 H       1  UNL1        0.0000
     65 H           5.2249    1.7328    5.4656 H       1  UNL1        0.0000
     66 H           4.4837    1.8128    3.1139 H       1  UNL1        0.0000
     67 H           2.1144    1.3646    2.5596 H       1  UNL1        0.0000
     68 H           0.5101    0.8601    4.3521 H       1  UNL1        0.0000
     69 H          -0.9339   -1.6953    6.3876 H       1  UNL1        0.0000
     70 H          -0.8836   -4.1217    6.8599 H       1  UNL1        0.0000
     71 H           0.7762   -5.0303    8.4405 H       1  UNL1        0.0000
     72 H           2.3996   -3.5144    9.5172 H       1  UNL1        0.0000
     73 H           2.3453   -1.1035    9.0255 H       1  UNL1        0.0000
@<TRIPOS>BOND
     1    67    35    1
     2    66    34    1
     3    35    34   ar
     4    35    36   ar
     5    34    33   ar
     6    68    36    1
     7    36    37   ar
     8    33    65    1
     9    33    32   ar
    10    37    32   ar
    11    37     3    1
    12    32    64    1
    13    69    38    1
    14    70    39    1
    15     7     3    1
    16    38    39   ar
    17    38    43   ar
    18     3    43    1
    19     3     6    1
    20    39    40   ar
    21    43    42   ar
    22    44     8    1
    23     4     1    1
    24    40    71    1
    25    40    41   ar
    26    42    41   ar
    27    42    73    1
    28     6     2    1
    29    45     9    1
    30    41    72    1
    31    63    30    1
    32     8     9   ar
    33     8    13   ar
    34     9    10   ar
    35    49    14    1
    36    62    29    1
    37     1     5    1
    38     1    13    1
    39     1    19    1
    40    30    29   ar
    41    30    31   ar
    42     5     2    1
    43     2    31    1
    44     2    25    1
    45    29    28   ar
    46    13    12   ar
    47    31    26   ar
    48    58    24    1
    49    14    19   ar
    50    14    15   ar
    51    28    61    1
    52    28    27   ar
    53    10    46    1
    54    10    11   ar
    55    19    18   ar
    56    26    27   ar
    57    26    59    1
    58    50    15    1
    59    24    25   ar
    60    24    23   ar
    61    27    60    1
    62    15    16   ar
    63    25    20   ar
    64    12    11   ar
    65    12    48    1
    66    11    47    1
    67    18    53    1
    68    18    17   ar
    69    57    23    1
    70    23    22   ar
    71    16    17   ar
    72    16    51    1
    73    20    54    1
    74    20    21   ar
    75    17    52    1
    76    22    21   ar
    77    22    56    1
    78    21    55    1
