@<TRIPOS>MOLECULE
1,2
 73 78 0 0 0
SMALL
GASTEIGER

@<TRIPOS>ATOM
      1 O          -1.4758    2.5940    4.7584 O.3     1  UNL1        0.0000
      2 O          -3.4120    1.1132    6.0004 O.3     1  UNL1        0.0000
      3 SI         -1.8960    2.3332    3.2565 Si      1  UNL1        0.0000
      4 SI         -4.8674    0.6296    5.5926 Si      1  UNL1        0.0000
      5 O          -3.4711    2.7898    3.0355 O.3     1  UNL1        0.0000
      6 C          -1.6723    0.5187    2.7428 C.ar    1  UNL1        0.0000
      7 C          -0.9677    3.4704    2.0545 C.ar    1  UNL1        0.0000
      8 O          -5.4544    1.4435    4.2833 O.3     1  UNL1        0.0000
      9 C          -6.1559    1.0097    6.9433 C.ar    1  UNL1        0.0000
     10 C          -4.9069   -1.2275    5.1935 C.ar    1  UNL1        0.0000
     11 SI         -4.9587    2.1694    2.9275 Si      1  UNL1        0.0000
     12 C          -1.6725   -0.4624    3.7333 C.ar    1  UNL1        0.0000
     13 C          -1.5166    0.1183    1.4191 C.ar    1  UNL1        0.0000
     14 C           0.2816    3.9952    2.3667 C.ar    1  UNL1        0.0000
     15 C          -1.5065    3.7720    0.8079 C.ar    1  UNL1        0.0000
     16 C          -7.4950    1.2548    6.6534 C.ar    1  UNL1        0.0000
     17 C          -5.7611    1.0469    8.2789 C.ar    1  UNL1        0.0000
     18 C          -4.0087   -2.1011    5.7996 C.ar    1  UNL1        0.0000
     19 C          -5.8512   -1.7652    4.3229 C.ar    1  UNL1        0.0000
     20 C          -5.0521    0.9654    1.4653 C.ar    1  UNL1        0.0000
     21 C          -6.0895    3.6553    2.6368 C.ar    1  UNL1        0.0000
     22 C          -1.5373   -1.8008    3.4072 C.ar    1  UNL1        0.0000
     23 H          -1.7821   -0.1480    4.7683 H       1  UNL1        0.0000
     24 C          -1.3791   -1.2182    1.0883 C.ar    1  UNL1        0.0000
     25 H          -1.5045    0.8664    0.6396 H       1  UNL1        0.0000
     26 C           0.9707    4.7933    1.4704 C.ar    1  UNL1        0.0000
     27 H           0.7154    3.7673    3.3295 H       1  UNL1        0.0000
     28 C          -0.8264    4.5697   -0.0951 C.ar    1  UNL1        0.0000
     29 H          -2.4775    3.3727    0.5524 H       1  UNL1        0.0000
     30 C          -8.4049    1.5431    7.6555 C.ar    1  UNL1        0.0000
     31 H          -7.8186    1.2193    5.6241 H       1  UNL1        0.0000
     32 C          -6.6642    1.3350    9.2876 C.ar    1  UNL1        0.0000
     33 H          -4.7255    0.8602    8.5224 H       1  UNL1        0.0000
     34 C          -4.0368   -3.4582    5.5330 C.ar    1  UNL1        0.0000
     35 H          -3.2816   -1.6953    6.4869 H       1  UNL1        0.0000
     36 C          -5.8809   -3.1202    4.0453 C.ar    1  UNL1        0.0000
     37 H          -6.5608   -1.1036    3.8489 H       1  UNL1        0.0000
     38 C          -5.4972    1.3949    0.2168 C.ar    1  UNL1        0.0000
     39 C          -4.6501   -0.3625    1.5879 C.ar    1  UNL1        0.0000
     40 C          -5.6698    4.7177    1.8422 C.ar    1  UNL1        0.0000
     41 C          -7.3817    3.6968    3.1481 C.ar    1  UNL1        0.0000
     42 C          -1.3937   -2.1807    2.0828 C.ar    1  UNL1        0.0000
     43 H          -1.5443   -2.5543    4.1809 H       1  UNL1        0.0000
     44 H          -1.2633   -1.5093    0.0540 H       1  UNL1        0.0000
     45 C           0.4178    5.0818    0.2342 C.ar    1  UNL1        0.0000
     46 H           1.9421    5.1886    1.7331 H       1  UNL1        0.0000
     47 H          -1.2625    4.7912   -1.0592 H       1  UNL1        0.0000
     48 C          -7.9905    1.5866    8.9766 C.ar    1  UNL1        0.0000
     49 H          -9.4404    1.7327    7.4088 H       1  UNL1        0.0000
     50 H          -6.3299    1.3647   10.3148 H       1  UNL1        0.0000
     51 C          -4.9706   -3.9714    4.6489 C.ar    1  UNL1        0.0000
     52 H          -3.3319   -4.1217    6.0145 H       1  UNL1        0.0000
     53 H          -6.6151   -3.5145    3.3572 H       1  UNL1        0.0000
     54 C          -5.5377    0.5366   -0.8672 C.ar    1  UNL1        0.0000
     55 H          -5.8205    2.4197    0.1000 H       1  UNL1        0.0000
     56 C          -4.6969   -1.2294    0.5109 C.ar    1  UNL1        0.0000
     57 H          -4.2999   -0.7210    2.5432 H       1  UNL1        0.0000
     58 C          -6.5058    5.7865    1.5719 C.ar    1  UNL1        0.0000
     59 H          -4.6676    4.7008    1.4404 H       1  UNL1        0.0000
     60 C          -8.2250    4.7621    2.8860 C.ar    1  UNL1        0.0000
     61 H          -7.7203    2.8779    3.7636 H       1  UNL1        0.0000
     62 H          -1.2893   -3.2258    1.8281 H       1  UNL1        0.0000
     63 H           0.9537    5.7020   -0.4702 H       1  UNL1        0.0000
     64 H          -8.6992    1.8127    9.7605 H       1  UNL1        0.0000
     65 H          -4.9917   -5.0303    4.4339 H       1  UNL1        0.0000
     66 C          -5.1380   -0.7814   -0.7221 C.ar    1  UNL1        0.0000
     67 H          -5.8846    0.8936   -1.8267 H       1  UNL1        0.0000
     68 H          -4.3839   -2.2557    0.6372 H       1  UNL1        0.0000
     69 C          -7.7889    5.8108    2.0934 C.ar    1  UNL1        0.0000
     70 H          -6.1614    6.6010    0.9501 H       1  UNL1        0.0000
     71 H          -9.2259    4.7750    3.2939 H       1  UNL1        0.0000
     72 H          -5.1731   -1.4550   -1.5664 H       1  UNL1        0.0000
     73 H          -8.4462    6.6421    1.8811 H       1  UNL1        0.0000
@<TRIPOS>BOND
     1    67    54    1
     2    72    66    1
     3    47    28    1
     4    54    66   ar
     5    54    38   ar
     6    66    56   ar
     7    63    45    1
     8    28    45   ar
     9    28    15   ar
    10    44    24    1
    11    55    38    1
    12    38    20   ar
    13    45    26   ar
    14    56    68    1
    15    56    39   ar
    16    29    15    1
    17    25    13    1
    18    15     7   ar
    19    70    58    1
    20    24    13   ar
    21    24    42   ar
    22    13     6   ar
    23    59    40    1
    24    20    39   ar
    25    20    11    1
    26    26    46    1
    27    26    14   ar
    28    58    40   ar
    29    58    69   ar
    30    39    57    1
    31    62    42    1
    32    40    21   ar
    33    73    69    1
    34     7    14   ar
    35     7     3    1
    36    42    22   ar
    37    69    60   ar
    38    14    27    1
    39    21    11    1
    40    21    41   ar
    41     6     3    1
    42     6    12   ar
    43    60    41   ar
    44    60    71    1
    45    11     5    1
    46    11     8    1
    47     5     3    1
    48    41    61    1
    49     3     1    1
    50    53    36    1
    51    22    12   ar
    52    22    43    1
    53    12    23    1
    54    37    19    1
    55    36    19   ar
    56    36    51   ar
    57     8     4    1
    58    19    10   ar
    59    65    51    1
    60    51    34   ar
    61    10     4    1
    62    10    18   ar
    63    34    18   ar
    64    34    52    1
    65     4     2    1
    66     4     9    1
    67    31    16    1
    68    18    35    1
    69    16     9   ar
    70    16    30   ar
    71     9    17   ar
    72    49    30    1
    73    30    48   ar
    74    17    33    1
    75    17    32   ar
    76    48    32   ar
    77    48    64    1
    78    32    50    1
