@<TRIPOS>MOLECULE
4,7
 73 78 0 0 0
SMALL
GASTEIGER

@<TRIPOS>ATOM
      1 SI         18.8456   15.0416   19.5697 Si      1  UNL1        0.0000
      2 SI         17.4586   14.1515   22.1024 Si      1  UNL1        0.0000
      3 SI         18.1110   11.3262   21.0369 Si      1  UNL1        0.0000
      4 O          18.7596   13.9638   18.3987 O.3     1  UNL1        0.0000
      5 O          17.6417   14.9136   20.6762 O.3     1  UNL1        0.0000
      6 O          17.8919   12.5912   22.0511 O.3     1  UNL1        0.0000
      7 O          18.1719   11.7062   19.4969 O.3     1  UNL1        0.0000
      8 C          20.4948   14.9071   20.5005 C.ar    1  UNL1        0.0000
      9 C          21.1155   13.6637   20.5902 C.ar    1  UNL1        0.0000
     10 H          20.6942   12.8375   20.0385 H       1  UNL1        0.0000
     11 C          22.2508   13.4854   21.3611 C.ar    1  UNL1        0.0000
     12 H          22.7039   12.5066   21.4285 H       1  UNL1        0.0000
     13 C          22.7965   14.5581   22.0459 C.ar    1  UNL1        0.0000
     14 H          23.6820   14.4234   22.6506 H       1  UNL1        0.0000
     15 C          22.2051   15.8068   21.9512 C.ar    1  UNL1        0.0000
     16 H          22.6305   16.6479   22.4796 H       1  UNL1        0.0000
     17 C          21.0635   15.9759   21.1886 C.ar    1  UNL1        0.0000
     18 H          20.6025   16.9508   21.1247 H       1  UNL1        0.0000
     19 C          18.5974   16.7577   18.8137 C.ar    1  UNL1        0.0000
     20 C          18.2585   17.8332   19.6271 C.ar    1  UNL1        0.0000
     21 H          18.0919   17.6578   20.6792 H       1  UNL1        0.0000
     22 C          18.1264   19.1081   19.1061 C.ar    1  UNL1        0.0000
     23 H          17.8626   19.9333   19.7526 H       1  UNL1        0.0000
     24 C          18.3336   19.3289   17.7545 C.ar    1  UNL1        0.0000
     25 H          18.2322   20.3240   17.3455 H       1  UNL1        0.0000
     26 C          18.6693   18.2676   16.9311 C.ar    1  UNL1        0.0000
     27 H          18.8286   18.4344   15.8749 H       1  UNL1        0.0000
     28 C          18.8011   16.9962   17.4610 C.ar    1  UNL1        0.0000
     29 H          19.0648   16.1647   16.8282 H       1  UNL1        0.0000
     30 C          18.6523   14.9346   23.3468 C.ar    1  UNL1        0.0000
     31 C          18.5569   16.2835   23.6773 C.ar    1  UNL1        0.0000
     32 H          17.7436   16.8667   23.2709 H       1  UNL1        0.0000
     33 C          19.4811   16.8868   24.5105 C.ar    1  UNL1        0.0000
     34 H          19.3909   17.9371   24.7499 H       1  UNL1        0.0000
     35 C          20.5244   16.1448   25.0378 C.ar    1  UNL1        0.0000
     36 H          21.2498   16.6139   25.6872 H       1  UNL1        0.0000
     37 C          20.6320   14.8000   24.7284 C.ar    1  UNL1        0.0000
     38 H          21.4439   14.2150   25.1360 H       1  UNL1        0.0000
     39 C          19.7055   14.2043   23.8922 C.ar    1  UNL1        0.0000
     40 H          19.7982   13.1584   23.6432 H       1  UNL1        0.0000
     41 C          15.6144   14.2629   22.4948 C.ar    1  UNL1        0.0000
     42 C          14.9090   13.1266   22.8827 C.ar    1  UNL1        0.0000
     43 H          15.4337   12.1859   22.9508 H       1  UNL1        0.0000
     44 C          13.5564   13.1845   23.1663 C.ar    1  UNL1        0.0000
     45 H          13.0281   12.2874   23.4566 H       1  UNL1        0.0000
     46 C          12.8808   14.3900   23.0777 C.ar    1  UNL1        0.0000
     47 H          11.8249   14.4400   23.3024 H       1  UNL1        0.0000
     48 C          13.5658   15.5318   22.6968 C.ar    1  UNL1        0.0000
     49 H          13.0426   16.4748   22.6239 H       1  UNL1        0.0000
     50 C          14.9170   15.4648   22.4079 C.ar    1  UNL1        0.0000
     51 H          15.4433   16.3547   22.0972 H       1  UNL1        0.0000
     52 C          16.5149   10.2982   21.1572 C.ar    1  UNL1        0.0000
     53 C          15.5407   10.4495   20.1752 C.ar    1  UNL1        0.0000
     54 H          15.7555   11.1029   19.3396 H       1  UNL1        0.0000
     55 C          14.3346    9.7775   20.2517 C.ar    1  UNL1        0.0000
     56 H          13.5899    9.9093   19.4790 H       1  UNL1        0.0000
     57 C          14.0807    8.9327   21.3197 C.ar    1  UNL1        0.0000
     58 H          13.1397    8.4050   21.3844 H       1  UNL1        0.0000
     59 C          15.0404    8.7655   22.3034 C.ar    1  UNL1        0.0000
     60 H          14.8482    8.1056   23.1377 H       1  UNL1        0.0000
     61 C          16.2449    9.4438   22.2200 C.ar    1  UNL1        0.0000
     62 H          16.9891    9.3085   22.9906 H       1  UNL1        0.0000
     63 C          19.7105   10.5424   21.6825 C.ar    1  UNL1        0.0000
     64 C          19.9070   10.2987   23.0394 C.ar    1  UNL1        0.0000
     65 H          19.1177   10.5390   23.7368 H       1  UNL1        0.0000
     66 C          21.0983    9.7720   23.5074 C.ar    1  UNL1        0.0000
     67 H          21.2324    9.5943   24.5653 H       1  UNL1        0.0000
     68 C          22.1206    9.4755   22.6214 C.ar    1  UNL1        0.0000
     69 H          23.0519    9.0649   22.9853 H       1  UNL1        0.0000
     70 C          21.9456    9.7154   21.2683 C.ar    1  UNL1        0.0000
     71 H          22.7413    9.4966   20.5702 H       1  UNL1        0.0000
     72 C          20.7524   10.2446   20.8079 C.ar    1  UNL1        0.0000
     73 H          20.6196   10.4490   19.7576 H       1  UNL1        0.0000
@<TRIPOS>BOND
     1    27    26    1
     2    29    28    1
     3    26    28   ar
     4    26    24   ar
     5    25    24    1
     6    28    19   ar
     7    24    22   ar
     8     4     1    1
     9    19     1    1
    10    19    20   ar
    11    22    20   ar
    12    22    23    1
    13    54    53    1
    14    56    55    1
    15     7     3    1
    16     1     8    1
    17     1     5    1
    18    20    21    1
    19    73    72    1
    20    10     9    1
    21    53    55   ar
    22    53    52   ar
    23    55    57   ar
    24     8     9   ar
    25     8    17   ar
    26    71    70    1
    27     9    11   ar
    28     5     2    1
    29    72    70   ar
    30    72    63   ar
    31     3    52    1
    32     3    63    1
    33     3     6    1
    34    18    17    1
    35    52    61   ar
    36    17    15   ar
    37    70    68   ar
    38    57    58    1
    39    57    59   ar
    40    11    12    1
    41    11    13   ar
    42    63    64   ar
    43    15    13   ar
    44    15    16    1
    45    13    14    1
    46     6     2    1
    47    51    50    1
    48     2    41    1
    49     2    30    1
    50    61    59   ar
    51    61    62    1
    52    59    60    1
    53    50    41   ar
    54    50    48   ar
    55    41    42   ar
    56    68    69    1
    57    68    66   ar
    58    49    48    1
    59    48    46   ar
    60    42    43    1
    61    42    44   ar
    62    64    66   ar
    63    64    65    1
    64    46    44   ar
    65    46    47    1
    66    44    45    1
    67    32    31    1
    68    30    31   ar
    69    30    39   ar
    70    66    67    1
    71    40    39    1
    72    31    33   ar
    73    39    37   ar
    74    33    34    1
    75    33    35   ar
    76    37    35   ar
    77    37    38    1
    78    35    36    1
