@<TRIPOS>MOLECULE
4,7
 73 78 0 0 0
SMALL
GASTEIGER

@<TRIPOS>ATOM
      1 SI         21.2107   11.8013   16.7473 Si      1  UNL1        0.0000
      2 SI         19.4639    9.8113   15.2560 Si      1  UNL1        0.0000
      3 SI         17.1476   11.7447   15.0052 Si      1  UNL1        0.0000
      4 O          20.1012   11.8166   17.8852 O.3     1  UNL1        0.0000
      5 O          20.7115   10.7873   15.5386 O.3     1  UNL1        0.0000
      6 O          18.2461   10.6513   14.5303 O.3     1  UNL1        0.0000
      7 O          17.4350   12.0427   16.5998 O.3     1  UNL1        0.0000
      8 C          22.7574   11.0237   17.5230 C.ar    1  UNL1        0.0000
      9 C          23.5025   11.7387   18.4561 C.ar    1  UNL1        0.0000
     10 H          23.1978   12.7404   18.7158 H       1  UNL1        0.0000
     11 C          24.6177   11.1819   19.0564 C.ar    1  UNL1        0.0000
     12 H          25.1800   11.7518   19.7821 H       1  UNL1        0.0000
     13 C          25.0119    9.8945   18.7300 C.ar    1  UNL1        0.0000
     14 H          25.8800    9.4556   19.2007 H       1  UNL1        0.0000
     15 C          24.2871    9.1722   17.7968 C.ar    1  UNL1        0.0000
     16 H          24.5904    8.1684   17.5353 H       1  UNL1        0.0000
     17 C          23.1718    9.7348   17.2003 C.ar    1  UNL1        0.0000
     18 H          22.6110    9.1711   16.4688 H       1  UNL1        0.0000
     19 C          21.5460   13.4741   15.9289 C.ar    1  UNL1        0.0000
     20 C          21.7516   13.6164   14.5584 C.ar    1  UNL1        0.0000
     21 H          21.7142   12.7385   13.9310 H       1  UNL1        0.0000
     22 C          21.9938   14.8581   13.9983 C.ar    1  UNL1        0.0000
     23 H          22.1481   14.9496   12.9327 H       1  UNL1        0.0000
     24 C          22.0374   15.9847   14.8033 C.ar    1  UNL1        0.0000
     25 H          22.2297   16.9553   14.3680 H       1  UNL1        0.0000
     26 C          21.8305   15.8634   16.1679 C.ar    1  UNL1        0.0000
     27 H          21.8527   16.7385   16.8015 H       1  UNL1        0.0000
     28 C          21.5886   14.6188   16.7224 C.ar    1  UNL1        0.0000
     29 H          21.4103   14.5304   17.7832 H       1  UNL1        0.0000
     30 C          18.7410    9.0360   16.8215 C.ar    1  UNL1        0.0000
     31 C          17.3691    8.8157   16.9335 C.ar    1  UNL1        0.0000
     32 H          16.7259    9.0547   16.0987 H       1  UNL1        0.0000
     33 C          16.8158    8.2853   18.0840 C.ar    1  UNL1        0.0000
     34 H          15.7491    8.1270   18.1467 H       1  UNL1        0.0000
     35 C          17.6301    7.9533   19.1531 C.ar    1  UNL1        0.0000
     36 H          17.2003    7.5418   20.0540 H       1  UNL1        0.0000
     37 C          18.9964    8.1494   19.0576 C.ar    1  UNL1        0.0000
     38 H          19.6375    7.8871   19.8858 H       1  UNL1        0.0000
     39 C          19.5431    8.6840   17.9040 C.ar    1  UNL1        0.0000
     40 H          20.6101    8.8307   17.8380 H       1  UNL1        0.0000
     41 C          20.0257    8.5822   13.9425 C.ar    1  UNL1        0.0000
     42 C          21.3582    8.4890   13.5540 C.ar    1  UNL1        0.0000
     43 H          22.0786    9.1538   14.0059 H       1  UNL1        0.0000
     44 C          21.7624    7.5737   12.5985 C.ar    1  UNL1        0.0000
     45 H          22.8017    7.5184   12.3078 H       1  UNL1        0.0000
     46 C          20.8350    6.7282   12.0137 C.ar    1  UNL1        0.0000
     47 H          21.1474    6.0118   11.2677 H       1  UNL1        0.0000
     48 C          19.5040    6.8060   12.3892 C.ar    1  UNL1        0.0000
     49 H          18.7764    6.1486   11.9348 H       1  UNL1        0.0000
     50 C          19.1080    7.7227   13.3458 C.ar    1  UNL1        0.0000
     51 H          18.0701    7.7834   13.6372 H       1  UNL1        0.0000
     52 C          17.4536   13.3628   14.0787 C.ar    1  UNL1        0.0000
     53 C          18.3044   14.3203   14.6267 C.ar    1  UNL1        0.0000
     54 H          18.7400   14.1364   15.6015 H       1  UNL1        0.0000
     55 C          18.5886   15.4900   13.9447 C.ar    1  UNL1        0.0000
     56 H          19.2575   16.2164   14.3802 H       1  UNL1        0.0000
     57 C          18.0226   15.7228   12.7025 C.ar    1  UNL1        0.0000
     58 H          18.2451   16.6348   12.1680 H       1  UNL1        0.0000
     59 C          17.1670   14.7854   12.1480 C.ar    1  UNL1        0.0000
     60 H          16.7190   14.9660   11.1817 H       1  UNL1        0.0000
     61 C          16.8858   13.6164   12.8321 C.ar    1  UNL1        0.0000
     62 H          16.2172   12.8873   12.3990 H       1  UNL1        0.0000
     63 C          15.4187   10.9926   14.8762 C.ar    1  UNL1        0.0000
     64 C          14.4875   11.1433   15.9021 C.ar    1  UNL1        0.0000
     65 H          14.7687   11.7021   16.7833 H       1  UNL1        0.0000
     66 C          13.2278   10.5797   15.8075 C.ar    1  UNL1        0.0000
     67 H          12.5189   10.7042   16.6131 H       1  UNL1        0.0000
     68 C          12.8742    9.8566   14.6804 C.ar    1  UNL1        0.0000
     69 H          11.8911    9.4156   14.6048 H       1  UNL1        0.0000
     70 C          13.7871    9.6980   13.6508 C.ar    1  UNL1        0.0000
     71 H          13.5159    9.1325   12.7713 H       1  UNL1        0.0000
     72 C          15.0462   10.2626   13.7494 C.ar    1  UNL1        0.0000
     73 H          15.7632   10.1307   12.9530 H       1  UNL1        0.0000
@<TRIPOS>BOND
     1    60    59    1
     2    47    46    1
     3    49    48    1
     4    46    48   ar
     5    46    44   ar
     6    59    57   ar
     7    59    61   ar
     8    58    57    1
     9    45    44    1
    10    48    50   ar
    11    62    61    1
    12    44    42   ar
    13    57    55   ar
    14    71    70    1
    15    61    52   ar
    16    23    22    1
    17    73    72    1
    18    50    51    1
    19    50    41   ar
    20    42    41   ar
    21    42    43    1
    22    70    72   ar
    23    70    68   ar
    24    72    63   ar
    25    21    20    1
    26    41     2    1
    27    55    56    1
    28    55    53   ar
    29    22    20   ar
    30    22    24   ar
    31    52    53   ar
    32    52     3    1
    33    25    24    1
    34     6     3    1
    35     6     2    1
    36    20    19   ar
    37    69    68    1
    38    53    54    1
    39    68    66   ar
    40    24    26   ar
    41    63     3    1
    42    63    64   ar
    43     3     7    1
    44     2     5    1
    45     2    30    1
    46     5     1    1
    47    66    64   ar
    48    66    67    1
    49    64    65    1
    50    19    28   ar
    51    19     1    1
    52    32    31    1
    53    26    28   ar
    54    26    27    1
    55    18    17    1
    56    28    29    1
    57     1     8    1
    58     1     4    1
    59    30    31   ar
    60    30    39   ar
    61    31    33   ar
    62    17     8   ar
    63    17    15   ar
    64     8     9   ar
    65    16    15    1
    66    15    13   ar
    67    40    39    1
    68    39    37   ar
    69    33    34    1
    70    33    35   ar
    71     9    10    1
    72     9    11   ar
    73    13    11   ar
    74    13    14    1
    75    11    12    1
    76    37    35   ar
    77    37    38    1
    78    35    36    1
