@<TRIPOS>MOLECULE
4,7
 73 78 0 0 0
SMALL
GASTEIGER

@<TRIPOS>ATOM
      1 SI          2.1960   13.8363   -5.8037 Si      1  UNL1        0.0000
      2 SI          2.4767   14.9845   -2.9834 Si      1  UNL1        0.0000
      3 SI         -0.4664   15.7611   -3.1103 Si      1  UNL1        0.0000
      4 O           0.7388   13.2628   -6.1517 O.3     1  UNL1        0.0000
      5 O           2.2581   13.8909   -4.1626 O.3     1  UNL1        0.0000
      6 O           1.1048   15.7972   -2.6631 O.3     1  UNL1        0.0000
      7 O          -0.7356   14.6580   -4.2424 O.3     1  UNL1        0.0000
      8 C           3.5576   12.6360   -6.3340 C.ar    1  UNL1        0.0000
      9 C           3.7588   12.3428   -7.6789 C.ar    1  UNL1        0.0000
     10 H           3.1111   12.7963   -8.4158 H       1  UNL1        0.0000
     11 C           4.7711   11.4899   -8.0815 C.ar    1  UNL1        0.0000
     12 H           4.9130   11.2748   -9.1313 H       1  UNL1        0.0000
     13 C           5.6065   10.9150   -7.1382 C.ar    1  UNL1        0.0000
     14 H           6.3998   10.2505   -7.4496 H       1  UNL1        0.0000
     15 C           5.4214   11.1975   -5.7953 C.ar    1  UNL1        0.0000
     16 H           6.0713   10.7522   -5.0554 H       1  UNL1        0.0000
     17 C           4.4065   12.0512   -5.4002 C.ar    1  UNL1        0.0000
     18 H           4.2593   12.2726   -4.3536 H       1  UNL1        0.0000
     19 C           2.4016   15.5876   -6.4894 C.ar    1  UNL1        0.0000
     20 C           3.6276   16.0831   -6.9194 C.ar    1  UNL1        0.0000
     21 H           4.4846   15.4249   -6.9391 H       1  UNL1        0.0000
     22 C           3.7612   17.4020   -7.3140 C.ar    1  UNL1        0.0000
     23 H           4.7218   17.7717   -7.6430 H       1  UNL1        0.0000
     24 C           2.6670   18.2501   -7.2787 C.ar    1  UNL1        0.0000
     25 H           2.7732   19.2829   -7.5781 H       1  UNL1        0.0000
     26 C           1.4362   17.7708   -6.8627 C.ar    1  UNL1        0.0000
     27 H           0.5773   18.4260   -6.8337 H       1  UNL1        0.0000
     28 C           1.3072   16.4483   -6.4783 C.ar    1  UNL1        0.0000
     29 H           0.3428   16.0662   -6.1628 H       1  UNL1        0.0000
     30 C           3.0044   13.9989   -1.4616 C.ar    1  UNL1        0.0000
     31 C           2.5856   12.6863   -1.2514 C.ar    1  UNL1        0.0000
     32 H           1.9492   12.2088   -1.9816 H       1  UNL1        0.0000
     33 C           2.9759   11.9874   -0.1222 C.ar    1  UNL1        0.0000
     34 H           2.6381   10.9713    0.0231 H       1  UNL1        0.0000
     35 C           3.7968   12.5865    0.8179 C.ar    1  UNL1        0.0000
     36 H           4.1032   12.0415    1.6996 H       1  UNL1        0.0000
     37 C           4.2267   13.8886    0.6218 C.ar    1  UNL1        0.0000
     38 H           4.8705   14.3608    1.3504 H       1  UNL1        0.0000
     39 C           3.8325   14.5837   -0.5071 C.ar    1  UNL1        0.0000
     40 H           4.1715   15.5979   -0.6605 H       1  UNL1        0.0000
     41 C           3.7275   16.2799   -3.5477 C.ar    1  UNL1        0.0000
     42 C           3.3665   17.6062   -3.7637 C.ar    1  UNL1        0.0000
     43 H           2.3456   17.9067   -3.5821 H       1  UNL1        0.0000
     44 C           4.2888   18.5334   -4.2140 C.ar    1  UNL1        0.0000
     45 H           3.9865   19.5576   -4.3800 H       1  UNL1        0.0000
     46 C           5.5965   18.1494   -4.4551 C.ar    1  UNL1        0.0000
     47 H           6.3191   18.8717   -4.8074 H       1  UNL1        0.0000
     48 C           5.9751   16.8343   -4.2431 C.ar    1  UNL1        0.0000
     49 H           6.9948   16.5287   -4.4302 H       1  UNL1        0.0000
     50 C           5.0474   15.9130   -3.7929 C.ar    1  UNL1        0.0000
     51 H           5.3451   14.8872   -3.6293 H       1  UNL1        0.0000
     52 C          -0.9138   17.4672   -3.7929 C.ar    1  UNL1        0.0000
     53 C          -0.4435   18.6252   -3.1814 C.ar    1  UNL1        0.0000
     54 H           0.1719   18.5342   -2.2983 H       1  UNL1        0.0000
     55 C          -0.7489   19.8754   -3.6882 C.ar    1  UNL1        0.0000
     56 H          -0.3691   20.7636   -3.2034 H       1  UNL1        0.0000
     57 C          -1.5416   19.9891   -4.8185 C.ar    1  UNL1        0.0000
     58 H          -1.7793   20.9646   -5.2184 H       1  UNL1        0.0000
     59 C          -2.0273   18.8477   -5.4343 C.ar    1  UNL1        0.0000
     60 H          -2.6460   18.9286   -6.3165 H       1  UNL1        0.0000
     61 C          -1.7167   17.5994   -4.9234 C.ar    1  UNL1        0.0000
     62 H          -2.0917   16.7111   -5.4164 H       1  UNL1        0.0000
     63 C          -1.4782   15.2601   -1.5786 C.ar    1  UNL1        0.0000
     64 C          -2.5737   16.0024   -1.1466 C.ar    1  UNL1        0.0000
     65 H          -2.8387   16.9066   -1.6771 H       1  UNL1        0.0000
     66 C          -3.3205   15.6054   -0.0502 C.ar    1  UNL1        0.0000
     67 H          -4.1656   16.1979    0.2713 H       1  UNL1        0.0000
     68 C          -2.9829   14.4506    0.6357 C.ar    1  UNL1        0.0000
     69 H          -3.5637   14.1394    1.4921 H       1  UNL1        0.0000
     70 C          -1.8952   13.6999    0.2204 C.ar    1  UNL1        0.0000
     71 H          -1.6242   12.7996    0.7531 H       1  UNL1        0.0000
     72 C          -1.1517   14.1016   -0.8761 C.ar    1  UNL1        0.0000
     73 H          -0.3048   13.5116   -1.1954 H       1  UNL1        0.0000
@<TRIPOS>BOND
     1    12    11    1
     2    10     9    1
     3    11     9   ar
     4    11    13   ar
     5     9     8   ar
     6    23    22    1
     7    25    24    1
     8    14    13    1
     9    22    24   ar
    10    22    20   ar
    11    24    26   ar
    12    13    15   ar
    13    21    20    1
    14    20    19   ar
    15    26    27    1
    16    26    28   ar
    17    19    28   ar
    18    19     1    1
    19    28    29    1
    20     8     1    1
    21     8    17   ar
    22    60    59    1
    23     4     1    1
    24     1     5    1
    25    15    17   ar
    26    15    16    1
    27    59    61   ar
    28    59    57   ar
    29    62    61    1
    30    17    18    1
    31    58    57    1
    32    61    52   ar
    33    57    55   ar
    34    47    46    1
    35    46    48   ar
    36    46    44   ar
    37    49    48    1
    38    45    44    1
    39    48    50   ar
    40     7     3    1
    41    44    42   ar
    42     5     2    1
    43    50    51    1
    44    50    41   ar
    45    52    53   ar
    46    52     3    1
    47    42    43    1
    48    42    41   ar
    49    55    56    1
    50    55    53   ar
    51    41     2    1
    52    53    54    1
    53     3     6    1
    54     3    63    1
    55     2     6    1
    56     2    30    1
    57    32    31    1
    58    65    64    1
    59    63    64   ar
    60    63    72   ar
    61    30    31   ar
    62    30    39   ar
    63    31    33   ar
    64    73    72    1
    65    64    66   ar
    66    72    70   ar
    67    40    39    1
    68    39    37   ar
    69    33    34    1
    70    33    35   ar
    71    66    67    1
    72    66    68   ar
    73    70    68   ar
    74    70    71    1
    75    37    35   ar
    76    37    38    1
    77    68    69    1
    78    35    36    1
