@<TRIPOS>MOLECULE
1,3
 24 24 0 0 0
SMALL
GASTEIGER

@<TRIPOS>ATOM
      1 O           7.6366    6.0374   12.3576 O.co2   1  UNL1       -0.2214
      2 O           8.7554    7.7511   13.2083 O.co2   1  UNL1       -0.2214
      3 O           6.3730    4.5984   13.9332 O.co2   1  UNL1       -0.2214
      4 O           6.2524    5.2633   16.0424 O.co2   1  UNL1       -0.2214
      5 N           7.5605    6.4365   14.6123 N.am    1  UNL1       -0.1346
      6 C           8.0348    6.7852   13.3334 C.2     1  UNL1        0.4593
      7 C           6.6755    5.3806   14.9130 C.2     1  UNL1        0.4593
      8 C           7.8051    7.3829   15.6658 C.ar    1  UNL1        0.0564
      9 C           6.8630    8.3872   15.8913 C.ar    1  UNL1       -0.0281
     10 C           7.0967    9.2942   16.9133 C.ar    1  UNL1       -0.0570
     11 C           8.2400    9.2053   17.6880 C.ar    1  UNL1       -0.0611
     12 C           9.1642    8.2083   17.4466 C.ar    1  UNL1       -0.0570
     13 C           8.9603    7.2814   16.4307 C.ar    1  UNL1       -0.0281
     14 C           5.6326    8.4643   15.0413 C.3     1  UNL1       -0.0379
     15 C           9.9792    6.2135   16.1705 C.3     1  UNL1       -0.0379
     16 H           6.3766   10.0768   17.1024 H       1  UNL1        0.0621
     17 H           8.4096    9.9180   18.4814 H       1  UNL1        0.0618
     18 H          10.0582    8.1400   18.0493 H       1  UNL1        0.0621
     19 H           5.0474    9.3459   15.2894 H       1  UNL1        0.0278
     20 H           5.9043    8.5055   13.9859 H       1  UNL1        0.0278
     21 H           5.0173    7.5780   15.1990 H       1  UNL1        0.0278
     22 H          10.2217    5.6981   17.0993 H       1  UNL1        0.0278
     23 H          10.8899    6.6690   15.7813 H       1  UNL1        0.0278
     24 H           9.6089    5.4903   15.4412 H       1  UNL1        0.0278
@<TRIPOS>BOND
     1     1     6   ar
     2     2     6   ar
     3     6     5   am
     4     3     7   ar
     5    20    14    1
     6     5     7   am
     7     5     8    1
     8     7     4   ar
     9    14    21    1
    10    14    19    1
    11    14     9    1
    12    24    15    1
    13     8     9   ar
    14     8    13   ar
    15    23    15    1
    16     9    10   ar
    17    15    13    1
    18    15    22    1
    19    13    12   ar
    20    10    16    1
    21    10    11   ar
    22    12    11   ar
    23    12    18    1
    24    11    17    1
