@<TRIPOS>MOLECULE
2,3
 49 50 0 0 0
SMALL
GASTEIGER

@<TRIPOS>ATOM
      1 SI          6.2933    7.4381    7.4672 Si      1  UNL1        0.0000
      2 O           6.1958    6.6500   10.4318 O.3     1  UNL1        0.0000
      3 O           7.0315    4.7160    8.6320 O.3     1  UNL1        0.0000
      4 C           7.1370    7.5687   10.2179 C.ar    1  UNL1        0.0000
      5 C           7.3910    8.0032    8.9083 C.ar    1  UNL1        0.0000
      6 C           8.4294    8.9084    8.7049 C.ar    1  UNL1        0.0000
      7 H           8.6401    9.2437    7.7009 H       1  UNL1        0.0000
      8 C           9.1800    9.3877    9.7584 C.ar    1  UNL1        0.0000
      9 H           9.9801   10.0909    9.5810 H       1  UNL1        0.0000
     10 C           8.8915    8.9805   11.0511 C.ar    1  UNL1        0.0000
     11 H           9.4678    9.3805   11.8705 H       1  UNL1        0.0000
     12 C           7.8811    8.0703   11.3056 C.ar    1  UNL1        0.0000
     13 C           7.5038    7.6385   12.7042 C.3     1  UNL1        0.0000
     14 H           7.1594    6.5971   12.6569 H       1  UNL1        0.0000
     15 C           6.3211    8.4852   13.1863 C.3     1  UNL1        0.0000
     16 H           6.5991    9.5369   13.2250 H       1  UNL1        0.0000
     17 H           6.0079    8.1633   14.1765 H       1  UNL1        0.0000
     18 H           5.4779    8.3719   12.5087 H       1  UNL1        0.0000
     19 C           8.6567    7.7047   13.7025 C.3     1  UNL1        0.0000
     20 H           9.5394    7.2014   13.3129 H       1  UNL1        0.0000
     21 H           8.3620    7.2169   14.6291 H       1  UNL1        0.0000
     22 H           8.9143    8.7353   13.9349 H       1  UNL1        0.0000
     23 C           7.3415    4.7478    7.3488 C.ar    1  UNL1        0.0000
     24 C           6.9937    5.8887    6.6021 C.ar    1  UNL1        0.0000
     25 C           7.2293    5.8754    5.2337 C.ar    1  UNL1        0.0000
     26 H           6.9551    6.7389    4.6494 H       1  UNL1        0.0000
     27 C           7.8036    4.7831    4.6121 C.ar    1  UNL1        0.0000
     28 H           7.9700    4.7897    3.5452 H       1  UNL1        0.0000
     29 C           8.1821    3.6866    5.3655 C.ar    1  UNL1        0.0000
     30 H           8.6508    2.8444    4.8789 H       1  UNL1        0.0000
     31 C           7.9696    3.6489    6.7341 C.ar    1  UNL1        0.0000
     32 C           8.4039    2.4595    7.5564 C.3     1  UNL1        0.0000
     33 H           8.1954    2.6829    8.6085 H       1  UNL1        0.0000
     34 C           7.6071    1.2111    7.1732 C.3     1  UNL1        0.0000
     35 H           6.5456    1.3791    7.3393 H       1  UNL1        0.0000
     36 H           7.9201    0.3668    7.7835 H       1  UNL1        0.0000
     37 H           7.7610    0.9576    6.1269 H       1  UNL1        0.0000
     38 C           9.9066    2.2099    7.4068 C.3     1  UNL1        0.0000
     39 H          10.1552    1.9220    6.3884 H       1  UNL1        0.0000
     40 H          10.2200    1.4077    8.0719 H       1  UNL1        0.0000
     41 H          10.4708    3.1067    7.6554 H       1  UNL1        0.0000
     42 C           4.4399    7.2850    7.9338 C.3     1  UNL1        0.0000
     43 H           4.2768    6.7107    8.8425 H       1  UNL1        0.0000
     44 H           3.8621    6.8289    7.1334 H       1  UNL1        0.0000
     45 H           4.0289    8.2769    8.1058 H       1  UNL1        0.0000
     46 C           6.3280    8.8441    6.1792 C.3     1  UNL1        0.0000
     47 H           6.1087    9.7979    6.6458 H       1  UNL1        0.0000
     48 H           5.5826    8.6794    5.4096 H       1  UNL1        0.0000
     49 H           7.2918    8.9307    5.6913 H       1  UNL1        0.0000
@<TRIPOS>BOND
     1    28    27    1
     2    27    25   ar
     3    27    29   ar
     4    26    25    1
     5    30    29    1
     6    25    24   ar
     7    29    31   ar
     8    48    46    1
     9    49    46    1
    10    37    34    1
    11    46    47    1
    12    46     1    1
    13    39    38    1
    14    24    23   ar
    15    24     1    1
    16    31    23   ar
    17    31    32    1
    18    44    42    1
    19    34    35    1
    20    34    32    1
    21    34    36    1
    22    23     3    1
    23    38    32    1
    24    38    41    1
    25    38    40    1
    26     1    42    1
    27     1     5    1
    28    32    33    1
    29     7     6    1
    30    42    45    1
    31    42    43    1
    32     6     5   ar
    33     6     8   ar
    34     5     4   ar
    35     9     8    1
    36     8    10   ar
    37     4     2    1
    38     4    12   ar
    39    10    12   ar
    40    10    11    1
    41    12    13    1
    42    18    15    1
    43    14    13    1
    44    13    15    1
    45    13    19    1
    46    15    16    1
    47    15    17    1
    48    20    19    1
    49    19    22    1
    50    19    21    1
