@<TRIPOS>MOLECULE
3,4
 58 61 0 0 0
SMALL
GASTEIGER

@<TRIPOS>ATOM
      1 SI          3.1742    4.7567   10.2240 Si      1  UNL1        0.0000
      2 SI          8.3796    2.9300    3.6732 Si      1  UNL1        0.0000
      3 O           4.8654    4.1818    7.6394 O.3     1  UNL1        0.0000
      4 O           7.2355    4.2966    6.0367 O.3     1  UNL1        0.0000
      5 C           5.5888    4.0866    8.7515 C.ar    1  UNL1        0.0000
      6 C           5.0520    4.5598    9.9832 C.ar    1  UNL1        0.0000
      7 C           5.8861    4.6328   11.0701 C.ar    1  UNL1        0.0000
      8 C           7.2356    4.2316   11.0144 C.ar    1  UNL1        0.0000
      9 C           8.1123    4.3885   12.1068 C.ar    1  UNL1        0.0000
     10 C           9.3929    3.9138   12.0501 C.ar    1  UNL1        0.0000
     11 C           9.8499    3.2597   10.8957 C.ar    1  UNL1        0.0000
     12 C           9.0235    3.0875    9.8204 C.ar    1  UNL1        0.0000
     13 C           7.6978    3.5711    9.8454 C.ar    1  UNL1        0.0000
     14 C           6.8310    3.4506    8.7286 C.ar    1  UNL1        0.0000
     15 C           7.3739    2.9981    6.3192 C.ar    1  UNL1        0.0000
     16 C           7.8125    2.1202    5.2902 C.ar    1  UNL1        0.0000
     17 C           7.9335    0.7862    5.5679 C.ar    1  UNL1        0.0000
     18 C           7.6380    0.2564    6.8409 C.ar    1  UNL1        0.0000
     19 C           7.7325   -1.1247    7.1053 C.ar    1  UNL1        0.0000
     20 C           7.4553   -1.6233    8.3472 C.ar    1  UNL1        0.0000
     21 C           7.0589   -0.7548    9.3741 C.ar    1  UNL1        0.0000
     22 C           6.9628    0.5911    9.1511 C.ar    1  UNL1        0.0000
     23 C           7.2617    1.1411    7.8856 C.ar    1  UNL1        0.0000
     24 C           7.1694    2.5359    7.6139 C.ar    1  UNL1        0.0000
     25 C           2.7554    3.5693   11.6661 C.3     1  UNL1        0.0000
     26 C           2.7661    6.5274   10.8419 C.3     1  UNL1        0.0000
     27 C           2.0516    4.2555    8.7624 C.3     1  UNL1        0.0000
     28 C           9.0740    1.5618    2.5330 C.3     1  UNL1        0.0000
     29 C           9.8077    4.1226    4.1073 C.3     1  UNL1        0.0000
     30 C           6.9712    3.8007    2.7305 C.3     1  UNL1        0.0000
     31 H           5.5016    4.9969   12.0124 H       1  UNL1        0.0000
     32 H           7.7500    4.8937   12.9913 H       1  UNL1        0.0000
     33 H          10.0600    4.0381   12.8905 H       1  UNL1        0.0000
     34 H          10.8659    2.8942   10.8616 H       1  UNL1        0.0000
     35 H           9.3790    2.5950    8.9272 H       1  UNL1        0.0000
     36 H           8.2706    0.1090    4.7969 H       1  UNL1        0.0000
     37 H           8.0273   -1.7831    6.3002 H       1  UNL1        0.0000
     38 H           7.5312   -2.6828    8.5435 H       1  UNL1        0.0000
     39 H           6.8249   -1.1579   10.3488 H       1  UNL1        0.0000
     40 H           6.6437    1.2461    9.9479 H       1  UNL1        0.0000
     41 H           1.6891    3.5711   11.8708 H       1  UNL1        0.0000
     42 H           3.2625    3.8544   12.5821 H       1  UNL1        0.0000
     43 H           3.0452    2.5475   11.4385 H       1  UNL1        0.0000
     44 H           1.7792    6.5342   11.2945 H       1  UNL1        0.0000
     45 H           2.7654    7.2834   10.0626 H       1  UNL1        0.0000
     46 H           3.4720    6.8464   11.6032 H       1  UNL1        0.0000
     47 H           1.6798    3.2452    8.9077 H       1  UNL1        0.0000
     48 H           2.5802    4.2695    7.8134 H       1  UNL1        0.0000
     49 H           1.1891    4.9113    8.6810 H       1  UNL1        0.0000
     50 H           9.4272    1.9960    1.6040 H       1  UNL1        0.0000
     51 H           8.3228    0.8210    2.2795 H       1  UNL1        0.0000
     52 H           9.9119    1.0444    2.9878 H       1  UNL1        0.0000
     53 H          10.6561    3.5848    4.5222 H       1  UNL1        0.0000
     54 H           9.4827    4.8531    4.8424 H       1  UNL1        0.0000
     55 H          10.1565    4.6631    3.2324 H       1  UNL1        0.0000
     56 H           6.3112    4.3171    3.4246 H       1  UNL1        0.0000
     57 H           6.3761    3.0948    2.1590 H       1  UNL1        0.0000
     58 H           7.3684    4.5331    2.0343 H       1  UNL1        0.0000
@<TRIPOS>BOND
     1    50    28    1
     2    58    30    1
     3    57    30    1
     4    51    28    1
     5    28    52    1
     6    28     2    1
     7    30    56    1
     8    30     2    1
     9    55    29    1
    10     2    29    1
    11     2    16    1
    12    29    53    1
    13    29    54    1
    14    36    17    1
    15    16    17   ar
    16    16    15   ar
    17    17    18   ar
    18     4    15    1
    19    37    19    1
    20    15    24   ar
    21    18    19   ar
    22    18    23   ar
    23    19    20   ar
    24    24    23   ar
    25    24    14    1
    26     3     5    1
    27    48    27    1
    28    23    22   ar
    29    20    38    1
    30    20    21   ar
    31    49    27    1
    32    14     5   ar
    33    14    13   ar
    34     5     6   ar
    35    27    47    1
    36    27     1    1
    37    35    12    1
    38    22    21   ar
    39    22    40    1
    40    21    39    1
    41    12    13   ar
    42    12    11   ar
    43    13     8   ar
    44     6     1    1
    45     6     7   ar
    46    45    26    1
    47     1    26    1
    48     1    25    1
    49    26    44    1
    50    26    46    1
    51    34    11    1
    52    11    10   ar
    53     8     7   ar
    54     8     9   ar
    55     7    31    1
    56    43    25    1
    57    25    41    1
    58    25    42    1
    59    10     9   ar
    60    10    33    1
    61     9    32    1
