@<TRIPOS>MOLECULE
3,4
 58 61 0 0 0
SMALL
GASTEIGER

@<TRIPOS>ATOM
      1 SI          9.8202   15.5030   16.9793 Si      1  UNL1        0.0000
      2 SI         10.9927   20.6364   23.9282 Si      1  UNL1        0.0000
      3 O          10.4528   17.6310   18.8888 O.3     1  UNL1        0.0000
      4 O          11.0967   18.5475   21.8468 O.3     1  UNL1        0.0000
      5 C           9.5198   16.8594   19.4213 C.ar    1  UNL1        0.0000
      6 C           9.2108   15.6302   18.7694 C.ar    1  UNL1        0.0000
      7 C           8.3126   14.7737   19.3469 C.ar    1  UNL1        0.0000
      8 C           7.6720   15.0791   20.5672 C.ar    1  UNL1        0.0000
      9 C           6.7981   14.1712   21.1964 C.ar    1  UNL1        0.0000
     10 C           6.1468   14.5069   22.3506 C.ar    1  UNL1        0.0000
     11 C           6.3460   15.7722   22.9221 C.ar    1  UNL1        0.0000
     12 C           7.1860   16.6774   22.3351 C.ar    1  UNL1        0.0000
     13 C           7.8776   16.3621   21.1443 C.ar    1  UNL1        0.0000
     14 C           8.7906   17.2665   20.5336 C.ar    1  UNL1        0.0000
     15 C           9.9174   19.1665   21.7708 C.ar    1  UNL1        0.0000
     16 C           9.7218   20.3348   22.5682 C.ar    1  UNL1        0.0000
     17 C           8.5765   21.0701   22.4315 C.ar    1  UNL1        0.0000
     18 C           7.5707   20.7085   21.5134 C.ar    1  UNL1        0.0000
     19 C           6.4378   21.5147   21.2887 C.ar    1  UNL1        0.0000
     20 C           5.4563   21.1175   20.4240 C.ar    1  UNL1        0.0000
     21 C           5.5712   19.8913   19.7534 C.ar    1  UNL1        0.0000
     22 C           6.6536   19.0819   19.9597 C.ar    1  UNL1        0.0000
     23 C           7.6881   19.4651   20.8400 C.ar    1  UNL1        0.0000
     24 C           8.8459   18.6618   21.0363 C.ar    1  UNL1        0.0000
     25 C          11.6269   15.9720   16.5958 C.3     1  UNL1        0.0000
     26 C           8.6033   16.5993   15.9988 C.3     1  UNL1        0.0000
     27 C           9.6061   13.6783   16.4348 C.3     1  UNL1        0.0000
     28 C          11.0793   19.0683   25.0321 C.3     1  UNL1        0.0000
     29 C          12.7256   21.1481   23.3182 C.3     1  UNL1        0.0000
     30 C          10.3747   22.0611   25.0414 C.3     1  UNL1        0.0000
     31 H           8.0641   13.8439   18.8547 H       1  UNL1        0.0000
     32 H           6.6522   13.1998   20.7442 H       1  UNL1        0.0000
     33 H           5.4775   13.8053   22.8267 H       1  UNL1        0.0000
     34 H           5.8292   16.0283   23.8356 H       1  UNL1        0.0000
     35 H           7.3423   17.6463   22.7861 H       1  UNL1        0.0000
     36 H           8.4279   21.9517   23.0382 H       1  UNL1        0.0000
     37 H           6.3662   22.4602   21.8085 H       1  UNL1        0.0000
     38 H           4.5933   21.7434   20.2489 H       1  UNL1        0.0000
     39 H           4.7962   19.5911   19.0630 H       1  UNL1        0.0000
     40 H           6.7421   18.1485   19.4239 H       1  UNL1        0.0000
     41 H          11.6742   16.5020   15.6492 H       1  UNL1        0.0000
     42 H          12.2582   15.0930   16.5029 H       1  UNL1        0.0000
     43 H          12.0426   16.6307   17.3570 H       1  UNL1        0.0000
     44 H           8.6404   17.6186   16.3723 H       1  UNL1        0.0000
     45 H           7.5812   16.2440   16.0996 H       1  UNL1        0.0000
     46 H           8.8427   16.6213   14.9396 H       1  UNL1        0.0000
     47 H           8.5646   13.3771   16.4457 H       1  UNL1        0.0000
     48 H          10.1580   12.9861   17.0638 H       1  UNL1        0.0000
     49 H           9.9648   13.5524   15.4193 H       1  UNL1        0.0000
     50 H          10.3128   19.0973   25.8011 H       1  UNL1        0.0000
     51 H          12.0385   18.9697   25.5327 H       1  UNL1        0.0000
     52 H          10.9107   18.1734   24.4411 H       1  UNL1        0.0000
     53 H          13.4102   21.2848   24.1515 H       1  UNL1        0.0000
     54 H          12.6868   22.0869   22.7730 H       1  UNL1        0.0000
     55 H          13.1242   20.3903   22.6553 H       1  UNL1        0.0000
     56 H           9.3893   21.8583   25.4472 H       1  UNL1        0.0000
     57 H          10.3247   23.0023   24.5042 H       1  UNL1        0.0000
     58 H          11.0482   22.2031   25.8799 H       1  UNL1        0.0000
@<TRIPOS>BOND
     1    46    26    1
     2    49    27    1
     3    41    25    1
     4    26    45    1
     5    26    44    1
     6    26     1    1
     7    27    47    1
     8    27     1    1
     9    27    48    1
    10    42    25    1
    11    25     1    1
    12    25    43    1
    13     1     6    1
    14     6     7   ar
    15     6     5   ar
    16    31     7    1
    17     3     5    1
    18    39    21    1
    19     7     8   ar
    20     5    14   ar
    21    40    22    1
    22    21    22   ar
    23    21    20   ar
    24    22    23   ar
    25    38    20    1
    26    20    19   ar
    27    14    24    1
    28    14    13   ar
    29     8    13   ar
    30     8     9   ar
    31    32     9    1
    32    23    24   ar
    33    23    18   ar
    34    24    15   ar
    35    13    12   ar
    36     9    10   ar
    37    19    18   ar
    38    19    37    1
    39    18    17   ar
    40    15     4    1
    41    15    16   ar
    42    12    35    1
    43    12    11   ar
    44    10    33    1
    45    10    11   ar
    46    17    16   ar
    47    17    36    1
    48    16     2    1
    49    55    29    1
    50    54    29    1
    51    11    34    1
    52    29     2    1
    53    29    53    1
    54     2    28    1
    55     2    30    1
    56    52    28    1
    57    57    30    1
    58    28    51    1
    59    28    50    1
    60    30    56    1
    61    30    58    1
