@<TRIPOS>MOLECULE
3,4
 58 61 0 0 0
SMALL
GASTEIGER

@<TRIPOS>ATOM
      1 SI          1.3370   10.0043   17.6460 Si      1  UNL1        0.0000
      2 SI          6.9315    8.0893   11.7224 Si      1  UNL1        0.0000
      3 O           3.1421    8.9203   15.4230 O.3     1  UNL1        0.0000
      4 O           5.5343    9.3057   13.9944 O.3     1  UNL1        0.0000
      5 C           3.8234    9.0114   16.5670 C.ar    1  UNL1        0.0000
      6 C           3.2012    9.6256   17.6877 C.ar    1  UNL1        0.0000
      7 C           3.9457    9.8092   18.8244 C.ar    1  UNL1        0.0000
      8 C           5.2948    9.4091   18.9127 C.ar    1  UNL1        0.0000
      9 C           6.0730    9.6629   20.0608 C.ar    1  UNL1        0.0000
     10 C           7.3693    9.2368   20.1373 C.ar    1  UNL1        0.0000
     11 C           7.9440    8.5392   19.0640 C.ar    1  UNL1        0.0000
     12 C           7.2153    8.2704   17.9391 C.ar    1  UNL1        0.0000
     13 C           5.8727    8.6926   17.8309 C.ar    1  UNL1        0.0000
     14 C           5.0966    8.4545   16.6664 C.ar    1  UNL1        0.0000
     15 C           5.7958    8.0313   14.3038 C.ar    1  UNL1        0.0000
     16 C           6.3743    7.2046   13.3041 C.ar    1  UNL1        0.0000
     17 C           6.6254    5.8918   13.5967 C.ar    1  UNL1        0.0000
     18 C           6.3274    5.3383   14.8590 C.ar    1  UNL1        0.0000
     19 C           6.5560    3.9761   15.1406 C.ar    1  UNL1        0.0000
     20 C           6.2742    3.4559   16.3725 C.ar    1  UNL1        0.0000
     21 C           5.7393    4.2808   17.3726 C.ar    1  UNL1        0.0000
     22 C           5.5109    5.6075   17.1334 C.ar    1  UNL1        0.0000
     23 C           5.8088    6.1808   15.8779 C.ar    1  UNL1        0.0000
     24 C           5.5812    7.5558   15.5931 C.ar    1  UNL1        0.0000
     25 C           0.6064    9.1510   19.1956 C.3     1  UNL1        0.0000
     26 C           1.0694   11.8909   17.8664 C.3     1  UNL1        0.0000
     27 C           0.3528    9.3282   16.1562 C.3     1  UNL1        0.0000
     28 C           5.5159    8.9000   10.7366 C.3     1  UNL1        0.0000
     29 C           7.7637    6.7990   10.5841 C.3     1  UNL1        0.0000
     30 C           8.2464    9.3757   12.2419 C.3     1  UNL1        0.0000
     31 H           3.4933   10.2742   19.6890 H       1  UNL1        0.0000
     32 H           5.6222   10.2061   20.8795 H       1  UNL1        0.0000
     33 H           7.9596    9.4365   21.0196 H       1  UNL1        0.0000
     34 H           8.9728    8.2169   19.1321 H       1  UNL1        0.0000
     35 H           7.6617    7.7420   17.1098 H       1  UNL1        0.0000
     36 H           7.0699    5.2528   12.8479 H       1  UNL1        0.0000
     37 H           6.9574    3.3495   14.3565 H       1  UNL1        0.0000
     38 H           6.4529    2.4113   16.5815 H       1  UNL1        0.0000
     39 H           5.5039    3.8584   18.3387 H       1  UNL1        0.0000
     40 H           5.0870    6.2298   17.9072 H       1  UNL1        0.0000
     41 H           1.0388    9.5430   20.1103 H       1  UNL1        0.0000
     42 H           0.7817    8.0794   19.1863 H       1  UNL1        0.0000
     43 H          -0.4660    9.3080   19.2511 H       1  UNL1        0.0000
     44 H           1.5516   12.4941   17.1037 H       1  UNL1        0.0000
     45 H           1.4555   12.2181   18.8275 H       1  UNL1        0.0000
     46 H           0.0094   12.1266   17.8495 H       1  UNL1        0.0000
     47 H          -0.6812    9.6620   16.1981 H       1  UNL1        0.0000
     48 H           0.3486    8.2417   16.1763 H       1  UNL1        0.0000
     49 H           0.7664    9.6232   15.1940 H       1  UNL1        0.0000
     50 H           4.7679    9.3150   11.4106 H       1  UNL1        0.0000
     51 H           5.0249    8.1867   10.0812 H       1  UNL1        0.0000
     52 H           5.8943    9.7080   10.1175 H       1  UNL1        0.0000
     53 H           8.1022    7.2728    9.6692 H       1  UNL1        0.0000
     54 H           7.0823    6.0023   10.3041 H       1  UNL1        0.0000
     55 H           8.6299    6.3462   11.0541 H       1  UNL1        0.0000
     56 H           9.1052    8.8970   12.7048 H       1  UNL1        0.0000
     57 H           7.8276   10.0763   12.9585 H       1  UNL1        0.0000
     58 H           8.6064    9.9453   11.3902 H       1  UNL1        0.0000
@<TRIPOS>BOND
     1    53    29    1
     2    51    28    1
     3    52    28    1
     4    54    29    1
     5    29    55    1
     6    29     2    1
     7    28    50    1
     8    28     2    1
     9    58    30    1
    10     2    30    1
    11     2    16    1
    12    30    56    1
    13    30    57    1
    14    36    17    1
    15    16    17   ar
    16    16    15   ar
    17    17    18   ar
    18     4    15    1
    19    15    24   ar
    20    37    19    1
    21    18    19   ar
    22    18    23   ar
    23    19    20   ar
    24    49    27    1
    25     3     5    1
    26    24    23   ar
    27    24    14    1
    28    23    22   ar
    29    27    48    1
    30    27    47    1
    31    27     1    1
    32    20    38    1
    33    20    21   ar
    34     5    14   ar
    35     5     6   ar
    36    14    13   ar
    37    44    26    1
    38    35    12    1
    39    22    21   ar
    40    22    40    1
    41    21    39    1
    42     1     6    1
    43     1    26    1
    44     1    25    1
    45     6     7   ar
    46    13    12   ar
    47    13     8   ar
    48    46    26    1
    49    26    45    1
    50    12    11   ar
    51     7     8   ar
    52     7    31    1
    53     8     9   ar
    54    11    34    1
    55    11    10   ar
    56    42    25    1
    57    25    43    1
    58    25    41    1
    59     9    10   ar
    60     9    32    1
    61    10    33    1
