@<TRIPOS>MOLECULE
3,4
 72 77 0 0 0
SMALL
GASTEIGER

@<TRIPOS>ATOM
      1 SI          5.8149   12.2545   24.5901 Si      1  UNL1        0.0000
      2 SI         12.7193   12.4533   29.0298 Si      1  UNL1        0.0000
      3 O           7.9675   12.0916   26.4852 O.3     1  UNL1        0.0000
      4 O          10.3706   12.6676   27.2708 O.3     1  UNL1        0.0000
      5 C           7.4934   13.3329   26.5659 C.ar    1  UNL1        0.0000
      6 C           6.4663   13.6797   25.6525 C.ar    1  UNL1        0.0000
      7 C           6.0210   14.9706   25.5987 C.ar    1  UNL1        0.0000
      8 C           6.5922   15.9792   26.4007 C.ar    1  UNL1        0.0000
      9 C           6.2036   17.3284   26.2764 C.ar    1  UNL1        0.0000
     10 C           6.7834   18.3001   27.0423 C.ar    1  UNL1        0.0000
     11 C           7.7907   17.9565   27.9549 C.ar    1  UNL1        0.0000
     12 C           8.1769   16.6540   28.1103 C.ar    1  UNL1        0.0000
     13 C           7.5770   15.6204   27.3581 C.ar    1  UNL1        0.0000
     14 C           7.9661   14.2539   27.4908 C.ar    1  UNL1        0.0000
     15 C          10.0624   13.2299   28.4331 C.ar    1  UNL1        0.0000
     16 C          11.0112   13.1403   29.4850 C.ar    1  UNL1        0.0000
     17 C          10.6643   13.5738   30.7357 C.ar    1  UNL1        0.0000
     18 C           9.3728   14.0639   31.0146 C.ar    1  UNL1        0.0000
     19 C           8.9817   14.4141   32.3231 C.ar    1  UNL1        0.0000
     20 C           7.7213   14.8754   32.5787 C.ar    1  UNL1        0.0000
     21 C           6.7951   14.9909   31.5317 C.ar    1  UNL1        0.0000
     22 C           7.1496   14.6759   30.2495 C.ar    1  UNL1        0.0000
     23 C           8.4523   14.2229   29.9452 C.ar    1  UNL1        0.0000
     24 C           8.8450   13.8768   28.6196 C.ar    1  UNL1        0.0000
     25 C           6.9316   12.0718   23.0647 C.ar    1  UNL1        0.0000
     26 C           7.1025   10.8521   22.4179 C.ar    1  UNL1        0.0000
     27 C           7.8308   10.7614   21.2449 C.ar    1  UNL1        0.0000
     28 C           8.3887   11.8973   20.6841 C.ar    1  UNL1        0.0000
     29 C           8.2246   13.1215   21.3113 C.ar    1  UNL1        0.0000
     30 C           7.5080   13.2028   22.4916 C.ar    1  UNL1        0.0000
     31 C           4.1199   12.8138   23.8987 C.3     1  UNL1        0.0000
     32 C           5.5007   10.6582   25.5816 C.3     1  UNL1        0.0000
     33 C          12.6432   10.5623   29.2352 C.ar    1  UNL1        0.0000
     34 C          13.4468    9.7073   28.4885 C.ar    1  UNL1        0.0000
     35 C          13.4094    8.3381   28.6842 C.ar    1  UNL1        0.0000
     36 C          12.5728    7.7939   29.6441 C.ar    1  UNL1        0.0000
     37 C          11.7745    8.6280   30.4087 C.ar    1  UNL1        0.0000
     38 C          11.8082    9.9970   30.2006 C.ar    1  UNL1        0.0000
     39 C          13.9434   13.0600   30.3677 C.3     1  UNL1        0.0000
     40 C          13.3512   13.0781   27.3492 C.3     1  UNL1        0.0000
     41 H           5.2250   15.2368   24.9192 H       1  UNL1        0.0000
     42 H           5.4417   17.5782   25.5516 H       1  UNL1        0.0000
     43 H           6.4827   19.3325   26.9414 H       1  UNL1        0.0000
     44 H           8.2677   18.7323   28.5359 H       1  UNL1        0.0000
     45 H           8.9666   16.4102   28.8045 H       1  UNL1        0.0000
     46 H          11.3859   13.5312   31.5378 H       1  UNL1        0.0000
     47 H           9.7008   14.3005   33.1220 H       1  UNL1        0.0000
     48 H           7.4274   15.1411   33.5834 H       1  UNL1        0.0000
     49 H           5.7921   15.3293   31.7459 H       1  UNL1        0.0000
     50 H           6.4237   14.7546   29.4549 H       1  UNL1        0.0000
     51 H           6.6611    9.9622   22.8392 H       1  UNL1        0.0000
     52 H           7.9574    9.8033   20.7616 H       1  UNL1        0.0000
     53 H           8.9483   11.8302   19.7619 H       1  UNL1        0.0000
     54 H           8.6513   14.0141   20.8729 H       1  UNL1        0.0000
     55 H           7.3787   14.1620   22.9750 H       1  UNL1        0.0000
     56 H           3.6671   12.0138   23.3235 H       1  UNL1        0.0000
     57 H           4.2196   13.6666   23.2362 H       1  UNL1        0.0000
     58 H           3.4281   13.0836   24.6894 H       1  UNL1        0.0000
     59 H           5.0815   10.8872   26.5578 H       1  UNL1        0.0000
     60 H           6.4229   10.1077   25.7318 H       1  UNL1        0.0000
     61 H           4.8006   10.0087   25.0643 H       1  UNL1        0.0000
     62 H          14.1034   10.1197   27.7394 H       1  UNL1        0.0000
     63 H          14.0362    7.6920   28.0876 H       1  UNL1        0.0000
     64 H          12.5460    6.7252   29.8002 H       1  UNL1        0.0000
     65 H          11.1287    8.2124   31.1703 H       1  UNL1        0.0000
     66 H          11.1916   10.6447   30.8117 H       1  UNL1        0.0000
     67 H          13.9379   14.1408   30.4621 H       1  UNL1        0.0000
     68 H          14.9542   12.7558   30.1187 H       1  UNL1        0.0000
     69 H          13.7133   12.6388   31.3403 H       1  UNL1        0.0000
     70 H          12.8406   12.5841   26.5297 H       1  UNL1        0.0000
     71 H          14.4167   12.8982   27.2414 H       1  UNL1        0.0000
     72 H          13.1835   14.1474   27.2517 H       1  UNL1        0.0000
@<TRIPOS>BOND
     1    53    28    1
     2    28    27   ar
     3    28    29   ar
     4    52    27    1
     5    54    29    1
     6    27    26   ar
     7    29    30   ar
     8    26    51    1
     9    26    25   ar
    10    30    55    1
    11    30    25   ar
    12    25     1    1
    13    57    31    1
    14    56    31    1
    15    31     1    1
    16    31    58    1
    17     1    32    1
    18     1     6    1
    19    41     7    1
    20    61    32    1
    21    42     9    1
    22    32    60    1
    23    32    59    1
    24     7     6   ar
    25     7     8   ar
    26     6     5   ar
    27     9     8   ar
    28     9    10   ar
    29     8    13   ar
    30     3     5    1
    31    70    40    1
    32     5    14   ar
    33    43    10    1
    34    10    11   ar
    35    71    40    1
    36    72    40    1
    37     4    15    1
    38    40     2    1
    39    13    14   ar
    40    13    12   ar
    41    14    24    1
    42    62    34    1
    43    11    12   ar
    44    11    44    1
    45    63    35    1
    46    12    45    1
    47    15    24   ar
    48    15    16   ar
    49    34    35   ar
    50    34    33   ar
    51    24    23   ar
    52    35    36   ar
    53     2    33    1
    54     2    16    1
    55     2    39    1
    56    33    38   ar
    57    50    22    1
    58    16    17   ar
    59    36    64    1
    60    36    37   ar
    61    23    22   ar
    62    23    18   ar
    63    68    39    1
    64    38    37   ar
    65    38    66    1
    66    22    21   ar
    67    39    67    1
    68    39    69    1
    69    37    65    1
    70    17    18   ar
    71    17    46    1
    72    18    19   ar
    73    21    49    1
    74    21    20   ar
    75    19    20   ar
    76    19    47    1
    77    20    48    1
