@<TRIPOS>MOLECULE
3,4
 58 61 0 0 0
SMALL
GASTEIGER

@<TRIPOS>ATOM
      1 SI          6.9978    9.1481   18.9703 Si      1  UNL1        0.0000
      2 SI          2.9504    2.1450   20.7075 Si      1  UNL1        0.0000
      3 O           5.1555    6.9453   19.4049 O.3     1  UNL1        0.0000
      4 O           4.6693    4.5621   20.3016 O.3     1  UNL1        0.0000
      5 C           5.4173    7.4734   20.5986 C.ar    1  UNL1        0.0000
      6 C           6.3879    8.5068   20.6482 C.ar    1  UNL1        0.0000
      7 C           6.7851    8.9909   21.8635 C.ar    1  UNL1        0.0000
      8 C           6.2800    8.4666   23.0704 C.ar    1  UNL1        0.0000
      9 C           6.7525    8.9087   24.3226 C.ar    1  UNL1        0.0000
     10 C           6.2649    8.3795   25.4842 C.ar    1  UNL1        0.0000
     11 C           5.2909    7.3722   25.4348 C.ar    1  UNL1        0.0000
     12 C           4.8018    6.9329   24.2358 C.ar    1  UNL1        0.0000
     13 C           5.2630    7.4779   23.0176 C.ar    1  UNL1        0.0000
     14 C           4.7818    7.0336   21.7514 C.ar    1  UNL1        0.0000
     15 C           3.6638    4.8797   21.1099 C.ar    1  UNL1        0.0000
     16 C           2.6342    3.9221   21.3085 C.ar    1  UNL1        0.0000
     17 C           1.5063    4.2985   21.9881 C.ar    1  UNL1        0.0000
     18 C           1.3288    5.6121   22.4657 C.ar    1  UNL1        0.0000
     19 C           0.1283    6.0197   23.0829 C.ar    1  UNL1        0.0000
     20 C          -0.0279    7.2990   23.5364 C.ar    1  UNL1        0.0000
     21 C           1.0113    8.2280   23.3783 C.ar    1  UNL1        0.0000
     22 C           2.1932    7.8596   22.7986 C.ar    1  UNL1        0.0000
     23 C           2.3971    6.5391   22.3409 C.ar    1  UNL1        0.0000
     24 C           3.6087    6.1312   21.7139 C.ar    1  UNL1        0.0000
     25 C           7.8367   10.8331   19.3027 C.3     1  UNL1        0.0000
     26 C           5.5418    9.4637   17.7795 C.3     1  UNL1        0.0000
     27 C           8.3340    8.0011   18.2389 C.3     1  UNL1        0.0000
     28 C           2.2428    1.9023   18.9478 C.3     1  UNL1        0.0000
     29 C           4.7756    1.6354   20.8795 C.3     1  UNL1        0.0000
     30 C           1.9349    1.0178   21.8711 C.3     1  UNL1        0.0000
     31 H           7.5120    9.7879   21.9108 H       1  UNL1        0.0000
     32 H           7.5178    9.6717   24.3424 H       1  UNL1        0.0000
     33 H           6.6316    8.7215   26.4408 H       1  UNL1        0.0000
     34 H           4.9288    6.9384   26.3555 H       1  UNL1        0.0000
     35 H           4.0641    6.1452   24.2147 H       1  UNL1        0.0000
     36 H           0.7214    3.5774   22.1604 H       1  UNL1        0.0000
     37 H          -0.6692    5.2972   23.1827 H       1  UNL1        0.0000
     38 H          -0.9501    7.6054   24.0075 H       1  UNL1        0.0000
     39 H           0.8705    9.2439   23.7167 H       1  UNL1        0.0000
     40 H           2.9810    8.5859   22.6699 H       1  UNL1        0.0000
     41 H           8.1388   11.2918   18.3680 H       1  UNL1        0.0000
     42 H           8.7278   10.7287   19.9118 H       1  UNL1        0.0000
     43 H           7.1706   11.5257   19.8056 H       1  UNL1        0.0000
     44 H           4.6894    9.8924   18.3001 H       1  UNL1        0.0000
     45 H           5.2213    8.5352   17.3192 H       1  UNL1        0.0000
     46 H           5.8247   10.1478   16.9847 H       1  UNL1        0.0000
     47 H           7.9262    7.0208   18.0200 H       1  UNL1        0.0000
     48 H           9.1708    7.8776   18.9216 H       1  UNL1        0.0000
     49 H           8.7239    8.4105   17.3118 H       1  UNL1        0.0000
     50 H           2.9369    2.2504   18.1909 H       1  UNL1        0.0000
     51 H           1.2918    2.4129   18.8129 H       1  UNL1        0.0000
     52 H           2.0690    0.8468   18.7613 H       1  UNL1        0.0000
     53 H           4.8992    0.5714   20.6994 H       1  UNL1        0.0000
     54 H           5.1512    1.8510   21.8764 H       1  UNL1        0.0000
     55 H           5.3981    2.1679   20.1681 H       1  UNL1        0.0000
     56 H           2.1773   -0.0239   21.6916 H       1  UNL1        0.0000
     57 H           0.8686    1.1303   21.7071 H       1  UNL1        0.0000
     58 H           2.1317    1.2247   22.9178 H       1  UNL1        0.0000
@<TRIPOS>BOND
     1    46    26    1
     2    49    27    1
     3    45    26    1
     4    26    44    1
     5    26     1    1
     6    47    27    1
     7    50    28    1
     8    27    48    1
     9    27     1    1
    10    41    25    1
    11    52    28    1
    12    51    28    1
    13    28     2    1
    14     1    25    1
    15     1     6    1
    16    25    43    1
    17    25    42    1
    18     3     5    1
    19    55    29    1
    20     4    15    1
    21     5     6   ar
    22     5    14   ar
    23     6     7   ar
    24    53    29    1
    25     2    29    1
    26     2    16    1
    27     2    30    1
    28    29    54    1
    29    15    16   ar
    30    15    24   ar
    31    16    17   ar
    32    56    30    1
    33    57    30    1
    34    24    14    1
    35    24    23   ar
    36    14    13   ar
    37     7    31    1
    38     7     8   ar
    39    30    58    1
    40    17    36    1
    41    17    18   ar
    42    23    18   ar
    43    23    22   ar
    44    18    19   ar
    45    40    22    1
    46    22    21   ar
    47    13     8   ar
    48    13    12   ar
    49     8     9   ar
    50    19    37    1
    51    19    20   ar
    52    21    20   ar
    53    21    39    1
    54    20    38    1
    55    35    12    1
    56    12    11   ar
    57     9    32    1
    58     9    10   ar
    59    11    10   ar
    60    11    34    1
    61    10    33    1
