@<TRIPOS>MOLECULE
3,4
 100 109 0 0 0
SMALL
GASTEIGER

@<TRIPOS>ATOM
      1 SI          3.7024    9.0671    8.4506 Si      1  UNL1        0.0000
      2 SI          2.0036   12.3764    1.0679 Si      1  UNL1        0.0000
      3 O           3.1825   10.1554    5.9169 O.3     1  UNL1        0.0000
      4 O           2.1702   11.3440    3.7576 O.3     1  UNL1        0.0000
      5 C           3.2995   11.2028    6.7159 C.ar    1  UNL1        0.0000
      6 C           3.4168   10.9069    8.1002 C.ar    1  UNL1        0.0000
      7 C           3.3609   11.9155    9.0166 C.ar    1  UNL1        0.0000
      8 C           3.1142   13.2448    8.6103 C.ar    1  UNL1        0.0000
      9 C           2.9124   14.2727    9.5524 C.ar    1  UNL1        0.0000
     10 C           2.6458   15.5520    9.1516 C.ar    1  UNL1        0.0000
     11 C           2.5547   15.8460    7.7847 C.ar    1  UNL1        0.0000
     12 C           2.7689   14.8738    6.8466 C.ar    1  UNL1        0.0000
     13 C           3.0803   13.5501    7.2238 C.ar    1  UNL1        0.0000
     14 C           3.2931   12.5167    6.2567 C.ar    1  UNL1        0.0000
     15 C           4.9625    8.4026    7.1971 C.ar    1  UNL1        0.0000
     16 C           6.0445    9.1995    6.8288 C.ar    1  UNL1        0.0000
     17 C           6.9756    8.7615    5.9060 C.ar    1  UNL1        0.0000
     18 C           6.8420    7.5100    5.3288 C.ar    1  UNL1        0.0000
     19 C           5.7682    6.7089    5.6751 C.ar    1  UNL1        0.0000
     20 C           4.8396    7.1526    6.6002 C.ar    1  UNL1        0.0000
     21 C           2.0652    8.1143    8.4910 C.ar    1  UNL1        0.0000
     22 C           0.8569    8.7647    8.2658 C.ar    1  UNL1        0.0000
     23 C          -0.3363    8.0665    8.2277 C.ar    1  UNL1        0.0000
     24 C          -0.3431    6.6977    8.4315 C.ar    1  UNL1        0.0000
     25 C           0.8458    6.0396    8.6983 C.ar    1  UNL1        0.0000
     26 C           2.0357    6.7433    8.7310 C.ar    1  UNL1        0.0000
     27 C           4.4413    8.9311   10.1937 C.ar    1  UNL1        0.0000
     28 C           5.7969    8.7107   10.4044 C.ar    1  UNL1        0.0000
     29 C           6.3167    8.6186   11.6834 C.ar    1  UNL1        0.0000
     30 C           5.4828    8.7471   12.7810 C.ar    1  UNL1        0.0000
     31 C           4.1282    8.9634   12.5900 C.ar    1  UNL1        0.0000
     32 C           3.6174    9.0517   11.3081 C.ar    1  UNL1        0.0000
     33 C           2.9173   12.4368    3.7256 C.ar    1  UNL1        0.0000
     34 C           3.0387   13.0961    2.4755 C.ar    1  UNL1        0.0000
     35 C           3.8893   14.1557    2.3397 C.ar    1  UNL1        0.0000
     36 C           4.7225   14.5521    3.4043 C.ar    1  UNL1        0.0000
     37 C           5.6960   15.5579    3.2359 C.ar    1  UNL1        0.0000
     38 C           6.5385   15.8968    4.2565 C.ar    1  UNL1        0.0000
     39 C           6.4510   15.2201    5.4810 C.ar    1  UNL1        0.0000
     40 C           5.4994   14.2586    5.6813 C.ar    1  UNL1        0.0000
     41 C           4.5805   13.9145    4.6650 C.ar    1  UNL1        0.0000
     42 C           3.5715   12.9172    4.8607 C.ar    1  UNL1        0.0000
     43 C           0.2449   11.9704    1.6390 C.ar    1  UNL1        0.0000
     44 C          -0.3438   12.7541    2.6298 C.ar    1  UNL1        0.0000
     45 C          -1.6780   12.6035    2.9604 C.ar    1  UNL1        0.0000
     46 C          -2.4525   11.6650    2.2997 C.ar    1  UNL1        0.0000
     47 C          -1.8745   10.8531    1.3395 C.ar    1  UNL1        0.0000
     48 C          -0.5381   11.0042    1.0159 C.ar    1  UNL1        0.0000
     49 C           3.0427   11.0350    0.2182 C.ar    1  UNL1        0.0000
     50 C           4.3329   10.7603    0.6617 C.ar    1  UNL1        0.0000
     51 C           5.1511    9.8784   -0.0212 C.ar    1  UNL1        0.0000
     52 C           4.6906    9.2515   -1.1661 C.ar    1  UNL1        0.0000
     53 C           3.4090    9.5138   -1.6230 C.ar    1  UNL1        0.0000
     54 C           2.5997   10.4019   -0.9399 C.ar    1  UNL1        0.0000
     55 C           1.8193   13.7403   -0.2443 C.ar    1  UNL1        0.0000
     56 C           2.8426   13.9718   -1.1581 C.ar    1  UNL1        0.0000
     57 C           2.7371   14.9624   -2.1172 C.ar    1  UNL1        0.0000
     58 C           1.5957   15.7440   -2.1820 C.ar    1  UNL1        0.0000
     59 C           0.5655   15.5255   -1.2833 C.ar    1  UNL1        0.0000
     60 C           0.6803   14.5333   -0.3260 C.ar    1  UNL1        0.0000
     61 H           3.4767   11.6962   10.0685 H       1  UNL1        0.0000
     62 H           2.9598   14.0212   10.6024 H       1  UNL1        0.0000
     63 H           2.4890   16.3346    9.8794 H       1  UNL1        0.0000
     64 H           2.3077   16.8502    7.4723 H       1  UNL1        0.0000
     65 H           2.6747   15.1134    5.7984 H       1  UNL1        0.0000
     66 H           6.1517   10.1824    7.2684 H       1  UNL1        0.0000
     67 H           7.8051    9.3981    5.6318 H       1  UNL1        0.0000
     68 H           7.5705    7.1645    4.6081 H       1  UNL1        0.0000
     69 H           5.6500    5.7348    5.2206 H       1  UNL1        0.0000
     70 H           4.0016    6.5205    6.8518 H       1  UNL1        0.0000
     71 H           0.8566    9.8356    8.1203 H       1  UNL1        0.0000
     72 H          -1.2618    8.5918    8.0333 H       1  UNL1        0.0000
     73 H          -1.2712    6.1453    8.3879 H       1  UNL1        0.0000
     74 H           0.8441    4.9729    8.8734 H       1  UNL1        0.0000
     75 H           2.9584    6.2239    8.9491 H       1  UNL1        0.0000
     76 H           6.4527    8.6049    9.5520 H       1  UNL1        0.0000
     77 H           7.3742    8.4456   11.8261 H       1  UNL1        0.0000
     78 H           5.8857    8.6759   13.7813 H       1  UNL1        0.0000
     79 H           3.4712    9.0609   13.4431 H       1  UNL1        0.0000
     80 H           2.5579    9.2112   11.1631 H       1  UNL1        0.0000
     81 H           3.9524   14.6765    1.3951 H       1  UNL1        0.0000
     82 H           5.7686   16.0428    2.2729 H       1  UNL1        0.0000
     83 H           7.2844   16.6661    4.1217 H       1  UNL1        0.0000
     84 H           7.1479   15.4589    6.2708 H       1  UNL1        0.0000
     85 H           5.4637   13.7344    6.6234 H       1  UNL1        0.0000
     86 H           0.2507   13.4974    3.1443 H       1  UNL1        0.0000
     87 H          -2.1150   13.2286    3.7273 H       1  UNL1        0.0000
     88 H          -3.5021   11.5619    2.5354 H       1  UNL1        0.0000
     89 H          -2.4679   10.1014    0.8395 H       1  UNL1        0.0000
     90 H          -0.0956   10.3601    0.2711 H       1  UNL1        0.0000
     91 H           4.7062   11.2474    1.5514 H       1  UNL1        0.0000
     92 H           6.1524    9.6906    0.3389 H       1  UNL1        0.0000
     93 H           5.3327    8.5722   -1.7108 H       1  UNL1        0.0000
     94 H           3.0461    9.0336   -2.5211 H       1  UNL1        0.0000
     95 H           1.6133   10.6222   -1.3204 H       1  UNL1        0.0000
     96 H           3.7328   13.3598   -1.1178 H       1  UNL1        0.0000
     97 H           3.5443   15.1255   -2.8173 H       1  UNL1        0.0000
     98 H           1.5090   16.5178   -2.9311 H       1  UNL1        0.0000
     99 H          -0.3293   16.1300   -1.3304 H       1  UNL1        0.0000
    100 H          -0.1304   14.3667    0.3690 H       1  UNL1        0.0000
@<TRIPOS>BOND
     1    98    58    1
     2    97    57    1
     3    94    53    1
     4    58    57   ar
     5    58    59   ar
     6    57    56   ar
     7    93    52    1
     8    53    52   ar
     9    53    54   ar
    10    99    59    1
    11    95    54    1
    12    59    60   ar
    13    52    51   ar
    14    56    96    1
    15    56    55   ar
    16    54    49   ar
    17    60    55   ar
    18    60   100    1
    19    55     2    1
    20    51    92    1
    21    51    50   ar
    22    49    50   ar
    23    49     2    1
    24    90    48    1
    25    50    91    1
    26    89    47    1
    27    48    47   ar
    28    48    43   ar
    29     2    43    1
    30     2    34    1
    31    47    46   ar
    32    81    35    1
    33    43    44   ar
    34    82    37    1
    35    46    88    1
    36    46    45   ar
    37    35    34   ar
    38    35    36   ar
    39    34    33   ar
    40    44    45   ar
    41    44    86    1
    42    45    87    1
    43    37    36   ar
    44    37    38   ar
    45    36    41   ar
    46    33     4    1
    47    33    42   ar
    48    83    38    1
    49    38    39   ar
    50    68    18    1
    51    41    42   ar
    52    41    40   ar
    53    42    14    1
    54    69    19    1
    55    18    19   ar
    56    18    17   ar
    57    39    40   ar
    58    39    84    1
    59    67    17    1
    60    19    20   ar
    61    40    85    1
    62    65    12    1
    63    17    16   ar
    64     3     5    1
    65    14     5   ar
    66    14    13   ar
    67    20    70    1
    68    20    15   ar
    69     5     6   ar
    70    16    15   ar
    71    16    66    1
    72    12    13   ar
    73    12    11   ar
    74    15     1    1
    75    13     8   ar
    76    64    11    1
    77    11    10   ar
    78    72    23    1
    79     6     1    1
    80     6     7   ar
    81    71    22    1
    82    23    22   ar
    83    23    24   ar
    84    22    21   ar
    85    73    24    1
    86    24    25   ar
    87     1    21    1
    88     1    27    1
    89    21    26   ar
    90     8     7   ar
    91     8     9   ar
    92    25    26   ar
    93    25    74    1
    94    26    75    1
    95     7    61    1
    96    10     9   ar
    97    10    63    1
    98    76    28    1
    99     9    62    1
   100    27    28   ar
   101    27    32   ar
   102    28    29   ar
   103    80    32    1
   104    32    31   ar
   105    29    77    1
   106    29    30   ar
   107    31    30   ar
   108    31    79    1
   109    30    78    1
