@<TRIPOS>MOLECULE
3,4
 100 109 0 0 0
SMALL
GASTEIGER

@<TRIPOS>ATOM
      1 SI          0.9508    9.1757    5.8355 Si      1  UNL1        0.0000
      2 SI         -3.9832   13.8975    1.3621 Si      1  UNL1        0.0000
      3 O          -0.3665   10.8309    3.7739 O.3     1  UNL1        0.0000
      4 O          -2.3330   12.3642    3.0933 O.3     1  UNL1        0.0000
      5 C           0.2404   11.6485    4.6215 C.ar    1  UNL1        0.0000
      6 C           0.9328   11.0663    5.7141 C.ar    1  UNL1        0.0000
      7 C           1.4970   11.8803    6.6591 C.ar    1  UNL1        0.0000
      8 C           1.3517   13.2803    6.6022 C.ar    1  UNL1        0.0000
      9 C           1.8552   14.1123    7.6237 C.ar    1  UNL1        0.0000
     10 C           1.6701   15.4650    7.5815 C.ar    1  UNL1        0.0000
     11 C           0.9533   16.0374    6.5203 C.ar    1  UNL1        0.0000
     12 C           0.4712   15.2598    5.5047 C.ar    1  UNL1        0.0000
     13 C           0.6775   13.8623    5.4955 C.ar    1  UNL1        0.0000
     14 C           0.1936   13.0285    4.4455 C.ar    1  UNL1        0.0000
     15 C          -1.5817   13.3871    2.6917 C.ar    1  UNL1        0.0000
     16 C          -2.1462   14.2119    1.6858 C.ar    1  UNL1        0.0000
     17 C          -1.3907   15.1896    1.1033 C.ar    1  UNL1        0.0000
     18 C          -0.0374   15.3691    1.4562 C.ar    1  UNL1        0.0000
     19 C           0.7797   16.3015    0.7859 C.ar    1  UNL1        0.0000
     20 C           2.0940   16.4570    1.1262 C.ar    1  UNL1        0.0000
     21 C           2.6449   15.6686    2.1459 C.ar    1  UNL1        0.0000
     22 C           1.8727   14.7683    2.8267 C.ar    1  UNL1        0.0000
     23 C           0.5033   14.6034    2.5234 C.ar    1  UNL1        0.0000
     24 C          -0.3204   13.6578    3.2079 C.ar    1  UNL1        0.0000
     25 C           2.3888    8.7525    7.0083 C.ar    1  UNL1        0.0000
     26 C           3.6772    9.2026    6.7333 C.ar    1  UNL1        0.0000
     27 C           4.7404    8.8819    7.5568 C.ar    1  UNL1        0.0000
     28 C           4.5342    8.0942    8.6773 C.ar    1  UNL1        0.0000
     29 C           3.2613    7.6318    8.9633 C.ar    1  UNL1        0.0000
     30 C           2.2032    7.9595    8.1341 C.ar    1  UNL1        0.0000
     31 C          -0.6336    8.6793    6.7721 C.ar    1  UNL1        0.0000
     32 C          -1.0100    9.4263    7.8907 C.ar    1  UNL1        0.0000
     33 C          -2.1179    9.0814    8.6437 C.ar    1  UNL1        0.0000
     34 C          -2.8758    7.9752    8.2936 C.ar    1  UNL1        0.0000
     35 C          -2.5154    7.2198    7.1904 C.ar    1  UNL1        0.0000
     36 C          -1.4031    7.5657    6.4406 C.ar    1  UNL1        0.0000
     37 C           1.3132    8.1744    4.2724 C.ar    1  UNL1        0.0000
     38 C           1.3114    6.7831    4.3484 C.ar    1  UNL1        0.0000
     39 C           1.5755    6.0056    3.2372 C.ar    1  UNL1        0.0000
     40 C           1.8702    6.6080    2.0263 C.ar    1  UNL1        0.0000
     41 C           1.9133    7.9886    1.9429 C.ar    1  UNL1        0.0000
     42 C           1.6363    8.7633    3.0553 C.ar    1  UNL1        0.0000
     43 C          -4.8820   13.6290    3.0165 C.ar    1  UNL1        0.0000
     44 C          -4.5666   14.4437    4.1021 C.ar    1  UNL1        0.0000
     45 C          -5.2175   14.3102    5.3154 C.ar    1  UNL1        0.0000
     46 C          -6.2045   13.3502    5.4703 C.ar    1  UNL1        0.0000
     47 C          -6.5188   12.5200    4.4080 C.ar    1  UNL1        0.0000
     48 C          -5.8632   12.6592    3.1958 C.ar    1  UNL1        0.0000
     49 C          -4.6482   15.5367    0.6498 C.ar    1  UNL1        0.0000
     50 C          -5.3872   15.5761   -0.5270 C.ar    1  UNL1        0.0000
     51 C          -5.8729   16.7690   -1.0326 C.ar    1  UNL1        0.0000
     52 C          -5.6260   17.9568   -0.3664 C.ar    1  UNL1        0.0000
     53 C          -4.8880   17.9400    0.8052 C.ar    1  UNL1        0.0000
     54 C          -4.4078   16.7426    1.3022 C.ar    1  UNL1        0.0000
     55 C          -4.2647   12.5874    0.0288 C.ar    1  UNL1        0.0000
     56 C          -5.5473   12.1637   -0.3079 C.ar    1  UNL1        0.0000
     57 C          -5.7551   11.2552   -1.3290 C.ar    1  UNL1        0.0000
     58 C          -4.6797   10.7707   -2.0534 C.ar    1  UNL1        0.0000
     59 C          -3.3999   11.1998   -1.7478 C.ar    1  UNL1        0.0000
     60 C          -3.1962   12.0924   -0.7107 C.ar    1  UNL1        0.0000
     61 H           2.0512   11.4455    7.4787 H       1  UNL1        0.0000
     62 H           2.3826   13.6510    8.4465 H       1  UNL1        0.0000
     63 H           2.0575   16.0971    8.3667 H       1  UNL1        0.0000
     64 H           0.7803   17.1035    6.5115 H       1  UNL1        0.0000
     65 H          -0.0906   15.7116    4.7021 H       1  UNL1        0.0000
     66 H          -1.8276   15.8309    0.3510 H       1  UNL1        0.0000
     67 H           0.3422   16.8842   -0.0123 H       1  UNL1        0.0000
     68 H           2.7155   17.1720    0.6079 H       1  UNL1        0.0000
     69 H           3.6918   15.7728    2.3908 H       1  UNL1        0.0000
     70 H           2.3185   14.1576    3.5971 H       1  UNL1        0.0000
     71 H           3.8439    9.8170    5.8595 H       1  UNL1        0.0000
     72 H           5.7323    9.2443    7.3267 H       1  UNL1        0.0000
     73 H           5.3624    7.8411    9.3234 H       1  UNL1        0.0000
     74 H           3.0937    7.0143    9.8344 H       1  UNL1        0.0000
     75 H           1.2124    7.5957    8.3659 H       1  UNL1        0.0000
     76 H          -0.4211   10.2880    8.1720 H       1  UNL1        0.0000
     77 H          -2.3878    9.6712    9.5084 H       1  UNL1        0.0000
     78 H          -3.7401    7.7018    8.8816 H       1  UNL1        0.0000
     79 H          -3.1001    6.3552    6.9132 H       1  UNL1        0.0000
     80 H          -1.1418    6.9761    5.5771 H       1  UNL1        0.0000
     81 H           1.1063    6.3044    5.2950 H       1  UNL1        0.0000
     82 H           1.5545    4.9282    3.3141 H       1  UNL1        0.0000
     83 H           2.0741    6.0043    1.1537 H       1  UNL1        0.0000
     84 H           2.1704    8.4597    1.0038 H       1  UNL1        0.0000
     85 H           1.6729    9.8396    2.9769 H       1  UNL1        0.0000
     86 H          -3.7897   15.1879    4.0001 H       1  UNL1        0.0000
     87 H          -4.9554   14.9549    6.1427 H       1  UNL1        0.0000
     88 H          -6.7193   13.2469    6.4148 H       1  UNL1        0.0000
     89 H          -7.2824   11.7631    4.5220 H       1  UNL1        0.0000
     90 H          -6.1095   11.9918    2.3856 H       1  UNL1        0.0000
     91 H          -5.5805   14.6568   -1.0597 H       1  UNL1        0.0000
     92 H          -6.4444   16.7732   -1.9501 H       1  UNL1        0.0000
     93 H          -6.0031   18.8903   -0.7586 H       1  UNL1        0.0000
     94 H          -4.6864   18.8632    1.3301 H       1  UNL1        0.0000
     95 H          -3.8270   16.7442    2.2129 H       1  UNL1        0.0000
     96 H          -6.3963   12.5570    0.2322 H       1  UNL1        0.0000
     97 H          -6.7578   10.9297   -1.5667 H       1  UNL1        0.0000
     98 H          -4.8390   10.0664   -2.8571 H       1  UNL1        0.0000
     99 H          -2.5619   10.8393   -2.3277 H       1  UNL1        0.0000
    100 H          -2.1961   12.4271   -0.4725 H       1  UNL1        0.0000
@<TRIPOS>BOND
     1    98    58    1
     2    99    59    1
     3    58    59   ar
     4    58    57   ar
     5    92    51    1
     6    59    60   ar
     7    97    57    1
     8    57    56   ar
     9    91    50    1
    10    51    50   ar
    11    51    52   ar
    12    93    52    1
    13    60   100    1
    14    60    55   ar
    15    50    49   ar
    16    52    53   ar
    17    56    55   ar
    18    56    96    1
    19    67    19    1
    20    55     2    1
    21    66    17    1
    22    68    20    1
    23    49    54   ar
    24    49     2    1
    25    19    20   ar
    26    19    18   ar
    27    53    54   ar
    28    53    94    1
    29    84    41    1
    30    17    18   ar
    31    17    16   ar
    32    20    21   ar
    33    83    40    1
    34    54    95    1
    35     2    16    1
    36     2    43    1
    37    18    23   ar
    38    16    15   ar
    39    41    40   ar
    40    41    42   ar
    41    40    39   ar
    42    21    69    1
    43    21    22   ar
    44    90    48    1
    45    23    22   ar
    46    23    24   ar
    47    15     4    1
    48    15    24   ar
    49    22    70    1
    50    85    42    1
    51    43    48   ar
    52    43    44   ar
    53    42    37   ar
    54    48    47   ar
    55    24    14    1
    56    39    82    1
    57    39    38   ar
    58     3     5    1
    59    86    44    1
    60    44    45   ar
    61    37    38   ar
    62    37     1    1
    63    38    81    1
    64    47    89    1
    65    47    46   ar
    66    14     5   ar
    67    14    13   ar
    68     5     6   ar
    69    65    12    1
    70    45    46   ar
    71    45    87    1
    72    46    88    1
    73    13    12   ar
    74    13     8   ar
    75    12    11   ar
    76    80    36    1
    77     6     1    1
    78     6     7   ar
    79     1    31    1
    80     1    25    1
    81    71    26    1
    82    36    31   ar
    83    36    35   ar
    84    64    11    1
    85    11    10   ar
    86     8     7   ar
    87     8     9   ar
    88     7    61    1
    89    26    25   ar
    90    26    27   ar
    91    31    32   ar
    92    79    35    1
    93    25    30   ar
    94    35    34   ar
    95    72    27    1
    96    27    28   ar
    97    10     9   ar
    98    10    63    1
    99     9    62    1
   100    32    76    1
   101    32    33   ar
   102    30    75    1
   103    30    29   ar
   104    34    33   ar
   105    34    78    1
   106    33    77    1
   107    28    29   ar
   108    28    73    1
   109    29    74    1
