@<TRIPOS>MOLECULE
1,21
 34 33 0 0 0
SMALL
GASTEIGER

@<TRIPOS>ATOM
      1 O          18.7891    3.7328    1.2424 O.3     1  UNL1        0.0000
      2 O          17.2149    2.6949    0.1008 O.3     1  UNL1        0.0000
      3 C          18.4465    3.1769    0.1540 C.3     1  UNL1        0.0000
      4 SI         16.2521    2.8976    1.4655 Si      1  UNL1        0.0000
      5 C          16.9109    1.8729    2.9266 C.3     1  UNL1        0.0000
      6 H          17.1888    0.8685    2.6170 H       1  UNL1        0.0000
      7 H          16.1726    1.7839    3.7175 H       1  UNL1        0.0000
      8 H          17.7914    2.3508    3.3424 H       1  UNL1        0.0000
      9 C          14.6462    2.1304    0.7876 C.3     1  UNL1        0.0000
     10 H          14.2733    2.6669   -0.0781 H       1  UNL1        0.0000
     11 H          13.8742    2.1532    1.5473 H       1  UNL1        0.0000
     12 H          14.7890    1.0966    0.4939 H       1  UNL1        0.0000
     13 C          15.9486    4.7193    1.9277 C.3     1  UNL1        0.0000
     14 H          16.8824    5.2739    1.8855 H       1  UNL1        0.0000
     15 H          15.5623    4.8073    2.9386 H       1  UNL1        0.0000
     16 H          15.2365    5.1985    1.2611 H       1  UNL1        0.0000
     17 C          19.2454    3.0091   -0.9642 C.2     1  UNL1        0.0000
     18 H          18.8440    2.5010   -1.8219 H       1  UNL1        0.0000
     19 C          20.5417    3.5354   -1.0139 C.2     1  UNL1        0.0000
     20 O          21.1761    3.3436   -2.1648 O.2     1  UNL1        0.0000
     21 O          21.1216    4.1409   -0.0817 O.2     1  UNL1        0.0000
     22 SI         22.5841    3.9722   -2.8003 Si      1  UNL1        0.0000
     23 C          22.0400    5.3048   -4.0521 C.3     1  UNL1        0.0000
     24 H          21.5774    4.8536   -4.9252 H       1  UNL1        0.0000
     25 H          22.8876    5.8862   -4.4006 H       1  UNL1        0.0000
     26 H          21.3187    5.9903   -3.6182 H       1  UNL1        0.0000
     27 C          23.2659    2.4396   -3.7102 C.3     1  UNL1        0.0000
     28 H          23.6092    1.6743   -3.0203 H       1  UNL1        0.0000
     29 H          24.1042    2.7123   -4.3419 H       1  UNL1        0.0000
     30 H          22.5088    1.9899   -4.3448 H       1  UNL1        0.0000
     31 C          23.8772    4.6412   -1.5778 C.3     1  UNL1        0.0000
     32 H          23.4121    4.8316   -0.6179 H       1  UNL1        0.0000
     33 H          24.3080    5.5773   -1.9189 H       1  UNL1        0.0000
     34 H          24.6924    3.9399   -1.4227 H       1  UNL1        0.0000
@<TRIPOS>BOND
     1    24    23    1
     2    25    23    1
     3    30    27    1
     4    29    27    1
     5    23    26    1
     6    23    22    1
     7    27    28    1
     8    27    22    1
     9    22    20    1
    10    22    31    1
    11    20    19    1
    12    33    31    1
    13    18    17    1
    14    31    34    1
    15    31    32    1
    16    19    17    2
    17    19    21    1
    18    17     3    1
    19    10     9    1
    20     2     3    1
    21     2     4    1
    22     3     1    1
    23    12     9    1
    24     9     4    1
    25     9    11    1
    26    16    13    1
    27     4    13    1
    28     4     5    1
    29    14    13    1
    30    13    15    1
    31     6     5    1
    32     5     8    1
    33     5     7    1
