@<TRIPOS>MOLECULE
1,21
 34 33 0 0 0
SMALL
GASTEIGER

@<TRIPOS>ATOM
      1 O          21.5648    3.6105    2.3196 O.2     1  UNL1        0.0000
      2 O          22.6027    2.0363    3.4612 O.2     1  UNL1        0.0000
      3 C          22.1207    3.2679    3.4080 C.2     1  UNL1        0.0000
      4 SI         22.3999    1.0734    2.0965 Si      1  UNL1        0.0000
      5 C          23.4246    1.7322    0.6353 C.3     1  UNL1        0.0000
      6 H          24.4290    2.0102    0.9449 H       1  UNL1        0.0000
      7 H          23.5136    0.9939   -0.1555 H       1  UNL1        0.0000
      8 H          22.9466    2.6127    0.2195 H       1  UNL1        0.0000
      9 C          23.1672   -0.5324    2.7744 C.3     1  UNL1        0.0000
     10 H          22.6307   -0.9053    3.6401 H       1  UNL1        0.0000
     11 H          23.1445   -1.3045    2.0148 H       1  UNL1        0.0000
     12 H          24.2011   -0.3896    3.0682 H       1  UNL1        0.0000
     13 C          20.5782    0.7698    1.6345 C.3     1  UNL1        0.0000
     14 H          20.0236    1.7037    1.6767 H       1  UNL1        0.0000
     15 H          20.4901    0.3834    0.6237 H       1  UNL1        0.0000
     16 H          20.0992    0.0578    2.3013 H       1  UNL1        0.0000
     17 C          22.2885    4.0668    4.5262 C.2     1  UNL1        0.0000
     18 H          22.7967    3.6654    5.3839 H       1  UNL1        0.0000
     19 C          21.7623    5.3631    4.5759 C.2     1  UNL1        0.0000
     20 O          21.9544    5.9976    5.7268 O.3     1  UNL1        0.0000
     21 O          21.1567    5.9430    3.6437 O.2     1  UNL1        0.0000
     22 SI         21.3259    7.4056    6.3624 Si      1  UNL1        0.0000
     23 C          19.9934    6.8614    7.6141 C.3     1  UNL1        0.0000
     24 H          20.4445    6.3984    8.4871 H       1  UNL1        0.0000
     25 H          19.4122    7.7090    7.9630 H       1  UNL1        0.0000
     26 H          19.3076    6.1404    7.1801 H       1  UNL1        0.0000
     27 C          22.8586    8.0871    7.2722 C.3     1  UNL1        0.0000
     28 H          23.6240    8.4303    6.5823 H       1  UNL1        0.0000
     29 H          22.5861    8.9256    7.9039 H       1  UNL1        0.0000
     30 H          23.3082    7.3300    7.9069 H       1  UNL1        0.0000
     31 C          20.6571    8.6988    5.1400 C.3     1  UNL1        0.0000
     32 H          20.4650    8.2338    4.1805 H       1  UNL1        0.0000
     33 H          19.7220    9.1310    5.4819 H       1  UNL1        0.0000
     34 H          21.3591    9.5130    4.9838 H       1  UNL1        0.0000
@<TRIPOS>BOND
     1     7     5    1
     2     8     5    1
     3    15    13    1
     4     5     6    1
     5     5     4    1
     6    13    14    1
     7    13     4    1
     8    13    16    1
     9    11     9    1
    10     4     9    1
    11     4     2    1
    12     1     3    1
    13     9    12    1
    14     9    10    1
    15     3     2    1
    16     3    17    2
    17    21    19    2
    18    32    31    1
    19    17    19    1
    20    17    18    1
    21    19    20    1
    22    34    31    1
    23    31    33    1
    24    31    22    1
    25    20    22    1
    26    22    27    1
    27    22    23    1
    28    28    27    1
    29    26    23    1
    30    27    29    1
    31    27    30    1
    32    23    25    1
    33    23    24    1
