@<TRIPOS>MOLECULE
1,21
 34 33 0 0 0
SMALL
GASTEIGER

@<TRIPOS>ATOM
      1 O          21.6871    6.3864    1.2425 O.3     1  UNL1        0.0000
      2 O          23.2613    7.4241    0.1008 O.3     1  UNL1        0.0000
      3 C          22.0297    6.9423    0.1541 C.3     1  UNL1        0.0000
      4 SI         24.2241    7.2214    1.4655 Si      1  UNL1        0.0000
      5 C          23.5653    8.2462    2.9266 C.3     1  UNL1        0.0000
      6 H          23.2874    9.2506    2.6170 H       1  UNL1        0.0000
      7 H          24.3036    8.3351    3.7175 H       1  UNL1        0.0000
      8 H          22.6848    7.7682    3.3424 H       1  UNL1        0.0000
      9 C          25.8300    7.9886    0.7876 C.3     1  UNL1        0.0000
     10 H          26.2029    7.4520   -0.0780 H       1  UNL1        0.0000
     11 H          26.6021    7.9657    1.5473 H       1  UNL1        0.0000
     12 H          25.6873    9.0224    0.4939 H       1  UNL1        0.0000
     13 C          24.5276    5.3997    1.9278 C.3     1  UNL1        0.0000
     14 H          23.5937    4.8451    1.8855 H       1  UNL1        0.0000
     15 H          24.9139    5.3117    2.9386 H       1  UNL1        0.0000
     16 H          25.2397    4.9205    1.2612 H       1  UNL1        0.0000
     17 C          21.2308    7.1100   -0.9642 C.2     1  UNL1        0.0000
     18 H          21.6322    7.6181   -1.8219 H       1  UNL1        0.0000
     19 C          19.9346    6.5835   -1.0139 C.2     1  UNL1        0.0000
     20 O          19.3001    6.7755   -2.1648 O.2     1  UNL1        0.0000
     21 O          19.3546    5.9781   -0.0817 O.2     1  UNL1        0.0000
     22 SI         17.8921    6.1469   -2.8003 Si      1  UNL1        0.0000
     23 C          18.4363    4.8144   -4.0521 C.3     1  UNL1        0.0000
     24 H          18.8989    5.2656   -4.9252 H       1  UNL1        0.0000
     25 H          17.5887    4.2330   -4.4007 H       1  UNL1        0.0000
     26 H          19.1575    4.1288   -3.6182 H       1  UNL1        0.0000
     27 C          17.2103    7.6795   -3.7102 C.3     1  UNL1        0.0000
     28 H          16.8670    8.4449   -3.0204 H       1  UNL1        0.0000
     29 H          16.3720    7.4068   -4.3420 H       1  UNL1        0.0000
     30 H          17.9674    8.1292   -4.3448 H       1  UNL1        0.0000
     31 C          16.5990    5.4779   -1.5779 C.3     1  UNL1        0.0000
     32 H          17.0641    5.2873   -0.6180 H       1  UNL1        0.0000
     33 H          16.1682    4.5418   -1.9191 H       1  UNL1        0.0000
     34 H          15.7839    6.1792   -1.4226 H       1  UNL1        0.0000
@<TRIPOS>BOND
     1    24    23    1
     2    25    23    1
     3    30    27    1
     4    29    27    1
     5    23    26    1
     6    23    22    1
     7    27    28    1
     8    27    22    1
     9    22    20    1
    10    22    31    1
    11    20    19    1
    12    33    31    1
    13    18    17    1
    14    31    34    1
    15    31    32    1
    16    19    17    2
    17    19    21    1
    18    17     3    1
    19    10     9    1
    20     2     3    1
    21     2     4    1
    22     3     1    1
    23    12     9    1
    24     9     4    1
    25     9    11    1
    26    16    13    1
    27     4    13    1
    28     4     5    1
    29    14    13    1
    30    13    15    1
    31     6     5    1
    32     5     8    1
    33     5     7    1
