@<TRIPOS>MOLECULE
1,21
 34 33 0 0 0
SMALL
GASTEIGER

@<TRIPOS>ATOM
      1 O          18.9113    6.5085    2.3196 O.2     1  UNL1        0.0000
      2 O          17.8735    8.0827    3.4612 O.2     1  UNL1        0.0000
      3 C          18.3554    6.8511    3.4079 C.2     1  UNL1        0.0000
      4 SI         18.0762    9.0456    2.0965 Si      1  UNL1        0.0000
      5 C          17.0515    8.3868    0.6353 C.3     1  UNL1        0.0000
      6 H          16.0471    8.1087    0.9450 H       1  UNL1        0.0000
      7 H          16.9625    9.1250   -0.1555 H       1  UNL1        0.0000
      8 H          17.5296    7.5063    0.2195 H       1  UNL1        0.0000
      9 C          17.3088   10.6514    2.7744 C.3     1  UNL1        0.0000
     10 H          17.8453   11.0243    3.6401 H       1  UNL1        0.0000
     11 H          17.3316   11.4235    2.0148 H       1  UNL1        0.0000
     12 H          16.2750   10.5086    3.0682 H       1  UNL1        0.0000
     13 C          19.8979    9.3493    1.6345 C.3     1  UNL1        0.0000
     14 H          20.4525    8.4154    1.6767 H       1  UNL1        0.0000
     15 H          19.9860    9.7357    0.6237 H       1  UNL1        0.0000
     16 H          20.3770   10.0612    2.3013 H       1  UNL1        0.0000
     17 C          18.1877    6.0522    4.5262 C.2     1  UNL1        0.0000
     18 H          17.6795    6.4536    5.3839 H       1  UNL1        0.0000
     19 C          18.7140    4.7560    4.5760 C.2     1  UNL1        0.0000
     20 O          18.5219    4.1215    5.7268 O.3     1  UNL1        0.0000
     21 O          19.3195    4.1760    3.6438 O.2     1  UNL1        0.0000
     22 SI         19.1504    2.7135    6.3624 Si      1  UNL1        0.0000
     23 C          20.4829    3.2577    7.6141 C.3     1  UNL1        0.0000
     24 H          20.0318    3.7207    8.4871 H       1  UNL1        0.0000
     25 H          21.0641    2.4101    7.9630 H       1  UNL1        0.0000
     26 H          21.1687    3.9787    7.1801 H       1  UNL1        0.0000
     27 C          17.6176    2.0320    7.2723 C.3     1  UNL1        0.0000
     28 H          16.8523    1.6887    6.5824 H       1  UNL1        0.0000
     29 H          17.8902    1.1935    7.9040 H       1  UNL1        0.0000
     30 H          17.1681    2.7891    7.9070 H       1  UNL1        0.0000
     31 C          19.8192    1.4202    5.1400 C.3     1  UNL1        0.0000
     32 H          20.0112    1.8853    4.1805 H       1  UNL1        0.0000
     33 H          20.7542    0.9880    5.4819 H       1  UNL1        0.0000
     34 H          19.1171    0.6060    4.9839 H       1  UNL1        0.0000
@<TRIPOS>BOND
     1     7     5    1
     2     8     5    1
     3    15    13    1
     4     5     6    1
     5     5     4    1
     6    13    14    1
     7    13     4    1
     8    13    16    1
     9    11     9    1
    10     4     9    1
    11     4     2    1
    12     1     3    1
    13     9    12    1
    14     9    10    1
    15     3     2    1
    16     3    17    2
    17    21    19    2
    18    32    31    1
    19    17    19    1
    20    17    18    1
    21    19    20    1
    22    34    31    1
    23    31    33    1
    24    31    22    1
    25    20    22    1
    26    22    27    1
    27    22    23    1
    28    28    27    1
    29    26    23    1
    30    27    29    1
    31    27    30    1
    32    23    25    1
    33    23    24    1
