@<TRIPOS>MOLECULE
3,4
 58 61 0 0 0
SMALL
GASTEIGER

@<TRIPOS>ATOM
      1 SI         14.9127   14.7978   20.5273 Si      1  UNL1        0.0000
      2 SI          9.2674   13.7503   14.2795 Si      1  UNL1        0.0000
      3 O          12.9950   13.8691   18.4513 O.3     1  UNL1        0.0000
      4 O          11.0373   14.4645   16.5480 O.3     1  UNL1        0.0000
      5 C          13.8444   14.7206   17.8992 C.ar    1  UNL1        0.0000
      6 C          14.7638   15.4082   18.7462 C.ar    1  UNL1        0.0000
      7 C          15.5654   16.3845   18.2206 C.ar    1  UNL1        0.0000
      8 C          15.5135   16.7401   16.8587 C.ar    1  UNL1        0.0000
      9 C          16.2838   17.7970   16.3356 C.ar    1  UNL1        0.0000
     10 C          16.2336   18.1120   15.0067 C.ar    1  UNL1        0.0000
     11 C          15.3983   17.3806   14.1500 C.ar    1  UNL1        0.0000
     12 C          14.6464   16.3431   14.6264 C.ar    1  UNL1        0.0000
     13 C          14.6862   15.9805   15.9910 C.ar    1  UNL1        0.0000
     14 C          13.8989   14.9244   16.5234 C.ar    1  UNL1        0.0000
     15 C          11.7796   13.9769   15.5638 C.ar    1  UNL1        0.0000
     16 C          11.1157   13.3865   14.4469 C.ar    1  UNL1        0.0000
     17 C          11.8477   12.7306   13.4935 C.ar    1  UNL1        0.0000
     18 C          13.2476   12.6118   13.5865 C.ar    1  UNL1        0.0000
     19 C          13.9957   11.8635   12.6557 C.ar    1  UNL1        0.0000
     20 C          15.3568   11.7880   12.7492 C.ar    1  UNL1        0.0000
     21 C          16.0230   12.4567   13.7871 C.ar    1  UNL1        0.0000
     22 C          15.3258   13.1995   14.6983 C.ar    1  UNL1        0.0000
     23 C          13.9196   13.3093   14.6245 C.ar    1  UNL1        0.0000
     24 C          13.1699   14.0519   15.5772 C.ar    1  UNL1        0.0000
     25 C          15.3626   12.9368   20.5131 C.3     1  UNL1        0.0000
     26 C          16.3888   15.6965   21.3503 C.3     1  UNL1        0.0000
     27 C          13.3936   15.1949   21.6088 C.3     1  UNL1        0.0000
     28 C           8.9618   15.6261   14.4441 C.3     1  UNL1        0.0000
     29 C           8.6963   13.2117   12.5384 C.3     1  UNL1        0.0000
     30 C           8.2460   12.7416   15.5360 C.3     1  UNL1        0.0000
     31 H          16.2637   16.9058   18.8596 H       1  UNL1        0.0000
     32 H          16.9142   18.3581   17.0119 H       1  UNL1        0.0000
     33 H          16.8263   18.9240   14.6107 H       1  UNL1        0.0000
     34 H          15.3494   17.6462   13.1034 H       1  UNL1        0.0000
     35 H          13.9974   15.7989   13.9563 H       1  UNL1        0.0000
     36 H          11.3481   12.2918   12.6419 H       1  UNL1        0.0000
     37 H          13.4669   11.3466   11.8667 H       1  UNL1        0.0000
     38 H          15.9253   11.2123   12.0331 H       1  UNL1        0.0000
     39 H          17.0979   12.3782   13.8637 H       1  UNL1        0.0000
     40 H          15.8472   13.7003   15.5003 H       1  UNL1        0.0000
     41 H          16.4255   12.7973   20.3350 H       1  UNL1        0.0000
     42 H          14.8269   12.4173   19.7267 H       1  UNL1        0.0000
     43 H          15.1220   12.4544   21.4558 H       1  UNL1        0.0000
     44 H          16.2239   16.7660   21.4286 H       1  UNL1        0.0000
     45 H          17.3118   15.5429   20.8014 H       1  UNL1        0.0000
     46 H          16.5433   15.3196   22.3558 H       1  UNL1        0.0000
     47 H          13.4412   14.6686   22.5583 H       1  UNL1        0.0000
     48 H          12.4809   14.9087   21.0987 H       1  UNL1        0.0000
     49 H          13.3411   16.2570   21.8314 H       1  UNL1        0.0000
     50 H           7.9024   15.8580   14.5057 H       1  UNL1        0.0000
     51 H           9.3684   16.1648   13.5924 H       1  UNL1        0.0000
     52 H           9.4414   16.0083   15.3386 H       1  UNL1        0.0000
     53 H           8.7871   12.1403   12.3935 H       1  UNL1        0.0000
     54 H           9.2689   13.7013   11.7581 H       1  UNL1        0.0000
     55 H           7.6537   13.4703   12.3882 H       1  UNL1        0.0000
     56 H           8.5926   12.9565   16.5404 H       1  UNL1        0.0000
     57 H           8.3298   11.6723   15.3590 H       1  UNL1        0.0000
     58 H           7.1913   12.9955   15.4760 H       1  UNL1        0.0000
@<TRIPOS>BOND
     1    54    29    1
     2    37    19    1
     3    38    20    1
     4    55    29    1
     5    53    29    1
     6    29     2    1
     7    36    17    1
     8    19    20   ar
     9    19    18   ar
    10    20    21   ar
    11    34    11    1
    12    17    18   ar
    13    17    16   ar
    14    18    23   ar
    15    51    28    1
    16    21    39    1
    17    21    22   ar
    18    35    12    1
    19    11    12   ar
    20    11    10   ar
    21     2    28    1
    22     2    16    1
    23     2    30    1
    24    28    50    1
    25    28    52    1
    26    16    15   ar
    27    33    10    1
    28    23    22   ar
    29    23    24   ar
    30    12    13   ar
    31    22    40    1
    32    10     9   ar
    33    57    30    1
    34    58    30    1
    35    30    56    1
    36    15    24   ar
    37    15     4    1
    38    24    14    1
    39    13    14   ar
    40    13     8   ar
    41     9     8   ar
    42     9    32    1
    43    14     5   ar
    44     8     7   ar
    45     5     3    1
    46     5     6   ar
    47     7     6   ar
    48     7    31    1
    49     6     1    1
    50    42    25    1
    51    41    25    1
    52    25     1    1
    53    25    43    1
    54     1    26    1
    55     1    27    1
    56    45    26    1
    57    48    27    1
    58    26    44    1
    59    26    46    1
    60    27    49    1
    61    27    47    1
