@<TRIPOS>MOLECULE
1,2
 55 56 0 0 0
SMALL
GASTEIGER

@<TRIPOS>ATOM
      1 O           2.9202    5.4211    3.9804 O.3     1  UNL1       -0.2873
      2 O           0.4263    5.6672    4.8192 O.3     1  UNL1       -0.2873
      3 C           3.2711    5.0536    2.7544 C.ar    1  UNL1        0.1861
      4 C           2.3890    4.2182    2.0451 C.ar    1  UNL1        0.0042
      5 C           2.7441    3.7507    0.7929 C.ar    1  UNL1       -0.0517
      6 C           3.9559    4.1022    0.2198 C.ar    1  UNL1       -0.0497
      7 C           4.7920    4.9709    0.9096 C.ar    1  UNL1       -0.0515
      8 C           4.4814    5.4734    2.1640 C.ar    1  UNL1        0.0052
      9 C           5.3574    6.4989    2.8737 C.3     1  UNL1       -0.0090
     10 C           6.6192    6.8434    2.0752 C.3     1  UNL1       -0.0559
     11 C           5.7996    5.9695    4.2462 C.3     1  UNL1       -0.0559
     12 C           4.5371    7.7868    3.0492 C.3     1  UNL1       -0.0559
     13 C           4.3654    3.5606   -1.1171 C.3     1  UNL1       -0.0397
     14 C           1.0419    3.9043    2.6463 C.3     1  UNL1        0.0049
     15 C          -0.1828    5.9109    3.6494 C.ar    1  UNL1        0.1861
     16 C           0.1232    5.1024    2.5353 C.ar    1  UNL1        0.0042
     17 C          -0.4390    5.3753    1.2992 C.ar    1  UNL1       -0.0517
     18 C          -1.3295    6.4194    1.1282 C.ar    1  UNL1       -0.0497
     19 C          -1.6845    7.1613    2.2451 C.ar    1  UNL1       -0.0515
     20 C          -1.1551    6.9306    3.5059 C.ar    1  UNL1        0.0052
     21 C          -1.5999    7.7673    4.7006 C.3     1  UNL1       -0.0090
     22 C          -2.7800    8.6929    4.3800 C.3     1  UNL1       -0.0559
     23 C          -2.0493    6.8359    5.8352 C.3     1  UNL1       -0.0559
     24 C          -0.4221    8.6418    5.1466 C.3     1  UNL1       -0.0559
     25 C          -1.9328    6.7092   -0.2133 C.3     1  UNL1       -0.0397
     26 H           2.0658    3.1006    0.2577 H       1  UNL1        0.0624
     27 H           5.7147    5.2572    0.4323 H       1  UNL1        0.0624
     28 H           7.2489    5.9673    1.9372 H       1  UNL1        0.0238
     29 H           7.1941    7.5888    2.6206 H       1  UNL1        0.0238
     30 H           6.3682    7.2620    1.1037 H       1  UNL1        0.0238
     31 H           6.2678    4.9915    4.1409 H       1  UNL1        0.0238
     32 H           4.9506    5.8899    4.9274 H       1  UNL1        0.0238
     33 H           6.5214    6.6529    4.6892 H       1  UNL1        0.0238
     34 H           3.6349    7.6053    3.6354 H       1  UNL1        0.0238
     35 H           4.2426    8.1791    2.0772 H       1  UNL1        0.0238
     36 H           5.1297    8.5393    3.5647 H       1  UNL1        0.0238
     37 H           3.5024    3.2018   -1.6724 H       1  UNL1        0.0278
     38 H           5.0562    2.7267   -0.9878 H       1  UNL1        0.0278
     39 H           4.8705    4.3235   -1.7058 H       1  UNL1        0.0278
     40 H           1.1465    3.6248    3.7034 H       1  UNL1        0.0364
     41 H           0.5940    3.0680    2.1035 H       1  UNL1        0.0364
     42 H          -0.1706    4.7537    0.4568 H       1  UNL1        0.0624
     43 H          -2.4058    7.9496    2.1088 H       1  UNL1        0.0624
     44 H          -2.5069    9.4495    3.6487 H       1  UNL1        0.0238
     45 H          -3.0800    9.2075    5.2906 H       1  UNL1        0.0238
     46 H          -3.6356    8.1301    4.0135 H       1  UNL1        0.0238
     47 H          -2.3596    7.4187    6.6999 H       1  UNL1        0.0238
     48 H          -1.2403    6.1746    6.1376 H       1  UNL1        0.0238
     49 H          -2.8924    6.2301    5.5060 H       1  UNL1        0.0238
     50 H          -0.1463    9.3296    4.3489 H       1  UNL1        0.0238
     51 H           0.4480    8.0314    5.3837 H       1  UNL1        0.0238
     52 H          -0.6919    9.2241    6.0255 H       1  UNL1        0.0238
     53 H          -2.2393    7.7499   -0.2838 H       1  UNL1        0.0278
     54 H          -2.8135    6.0859   -0.3722 H       1  UNL1        0.0278
     55 H          -1.2225    6.4956   -1.0088 H       1  UNL1        0.0278
@<TRIPOS>BOND
     1    39    13    1
     2    37    13    1
     3    13    38    1
     4    13     6    1
     5    55    25    1
     6    54    25    1
     7    53    25    1
     8    25    18    1
     9     6     5   ar
    10     6     7   ar
    11    26     5    1
    12    27     7    1
    13    42    17    1
    14     5     4   ar
    15     7     8   ar
    16    30    10    1
    17    18    17   ar
    18    18    19   ar
    19    17    16   ar
    20    28    10    1
    21     4    14    1
    22     4     3   ar
    23    10    29    1
    24    10     9    1
    25    35    12    1
    26    41    14    1
    27    43    19    1
    28     8     3   ar
    29     8     9    1
    30    19    20   ar
    31    16    14    1
    32    16    15   ar
    33    14    40    1
    34     3     1    1
    35     9    12    1
    36     9    11    1
    37    12    36    1
    38    12    34    1
    39    20    15   ar
    40    20    21    1
    41    44    22    1
    42    15     2    1
    43    46    22    1
    44    31    11    1
    45    11    33    1
    46    11    32    1
    47    50    24    1
    48    22    21    1
    49    22    45    1
    50    21    24    1
    51    21    23    1
    52    24    51    1
    53    24    52    1
    54    49    23    1
    55    23    48    1
    56    23    47    1
