@<TRIPOS>MOLECULE
9,12
 151 160 0 0 0
SMALL
GASTEIGER

@<TRIPOS>ATOM
      1 SI          1.6505    3.7119    6.5940 Si      1  UNL1        0.0000
      2 SI          0.9960    3.5567    3.6120 Si      1  UNL1        0.0000
      3 SI         -1.7788    4.6403    4.2387 Si      1  UNL1        0.0000
      4 SI          1.1085    0.6831    6.9410 Si      1  UNL1        0.0000
      5 SI         -0.1189    0.7438    4.0874 Si      1  UNL1        0.0000
      6 SI         -2.4630    1.9935    5.4843 Si      1  UNL1        0.0000
      7 SI         -1.6659    0.7349    8.2333 Si      1  UNL1        0.0000
      8 SI         -1.5422    3.3101    9.9536 Si      1  UNL1        0.0000
      9 O           0.3894    4.6153    6.9618 O.3     1  UNL1        0.0000
     10 O           1.8514    3.5807    4.9795 O.3     1  UNL1        0.0000
     11 O          -0.2314    4.6038    3.6824 O.3     1  UNL1        0.0000
     12 O          -2.0284    5.9909    5.0203 O.3     1  UNL1        0.0000
     13 O           1.4902    2.2249    7.2377 O.3     1  UNL1        0.0000
     14 O           0.4504    2.0540    3.3245 O.3     1  UNL1        0.0000
     15 O          -1.8302    3.4734    5.4151 O.3     1  UNL1        0.0000
     16 O           0.7942    0.4036    5.3761 O.3     1  UNL1        0.0000
     17 O          -1.6682    0.9688    4.5106 O.3     1  UNL1        0.0000
     18 O          -2.3692    1.5613    7.0290 O.3     1  UNL1        0.0000
     19 O          -0.1620    0.2687    7.8520 O.3     1  UNL1        0.0000
     20 O          -1.6474    1.7266    9.5030 O.3     1  UNL1        0.0000
     21 C           3.2790    4.5470    7.1753 C.3     1  UNL1        0.0000
     22 H           3.5989    5.2190    6.3695 H       1  UNL1        0.0000
     23 C           3.0869    5.4072    8.4283 C.3     1  UNL1        0.0000
     24 H           2.8003    4.7647    9.2616 H       1  UNL1        0.0000
     25 H           2.2729    6.1251    8.2529 H       1  UNL1        0.0000
     26 C           4.3742    6.1423    8.7962 C.3     1  UNL1        0.0000
     27 H           4.2170    6.7389    9.6976 H       1  UNL1        0.0000
     28 H           4.6531    6.8241    7.9909 H       1  UNL1        0.0000
     29 C           5.5050    5.1439    9.0256 C.3     1  UNL1        0.0000
     30 H           5.2530    4.4999    9.8709 H       1  UNL1        0.0000
     31 H           6.4281    5.6735    9.2718 H       1  UNL1        0.0000
     32 C           5.7116    4.2854    7.7817 C.3     1  UNL1        0.0000
     33 H           6.5100    3.5610    7.9587 H       1  UNL1        0.0000
     34 H           6.0179    4.9235    6.9497 H       1  UNL1        0.0000
     35 C           4.4220    3.5568    7.4102 C.3     1  UNL1        0.0000
     36 H           4.5805    2.9653    6.5072 H       1  UNL1        0.0000
     37 H           4.1441    2.8733    8.2144 H       1  UNL1        0.0000
     38 C           2.1577    4.0769    2.2068 C.3     1  UNL1        0.0000
     39 H           1.6399    3.9725    1.2476 H       1  UNL1        0.0000
     40 C           2.5970    5.5375    2.3401 C.3     1  UNL1        0.0000
     41 H           3.1150    5.6718    3.2917 H       1  UNL1        0.0000
     42 H           1.7189    6.1849    2.3481 H       1  UNL1        0.0000
     43 C           3.5320    5.9414    1.2042 C.3     1  UNL1        0.0000
     44 H           3.8398    6.9806    1.3373 H       1  UNL1        0.0000
     45 H           3.0036    5.8631    0.2510 H       1  UNL1        0.0000
     46 C           4.7573    5.0338    1.1788 C.3     1  UNL1        0.0000
     47 H           5.3126    5.1571    2.1108 H       1  UNL1        0.0000
     48 H           5.4164    5.3161    0.3544 H       1  UNL1        0.0000
     49 C           4.3320    3.5759    1.0317 C.3     1  UNL1        0.0000
     50 H           5.2121    2.9288    1.0321 H       1  UNL1        0.0000
     51 H           3.8211    3.4447    0.0748 H       1  UNL1        0.0000
     52 C           3.3928    3.1753    2.1668 C.3     1  UNL1        0.0000
     53 H           3.0814    2.1364    2.0479 H       1  UNL1        0.0000
     54 H           3.9177    3.2545    3.1199 H       1  UNL1        0.0000
     55 C          -2.9217    4.4018    2.7377 C.3     1  UNL1        0.0000
     56 H          -3.9479    4.2322    3.0772 H       1  UNL1        0.0000
     57 C          -2.4906    3.2034    1.8903 C.3     1  UNL1        0.0000
     58 H          -2.4788    2.2969    2.4963 H       1  UNL1        0.0000
     59 H          -1.4707    3.3684    1.5370 H       1  UNL1        0.0000
     60 C          -3.4196    3.0199    0.6924 C.3     1  UNL1        0.0000
     61 H          -4.4332    2.8118    1.0443 H       1  UNL1        0.0000
     62 H          -3.0911    2.1655    0.0967 H       1  UNL1        0.0000
     63 C          -3.4350    4.2806   -0.1672 C.3     1  UNL1        0.0000
     64 H          -4.1161    4.1504   -1.0116 H       1  UNL1        0.0000
     65 H          -2.4342    4.4556   -0.5673 H       1  UNL1        0.0000
     66 C          -3.8608    5.4852    0.6668 C.3     1  UNL1        0.0000
     67 H          -4.8841    5.3370    1.0193 H       1  UNL1        0.0000
     68 H          -3.8471    6.3873    0.0514 H       1  UNL1        0.0000
     69 C          -2.9330    5.6618    1.8664 C.3     1  UNL1        0.0000
     70 H          -1.9181    5.8613    1.5191 H       1  UNL1        0.0000
     71 H          -3.2487    6.5156    2.4672 H       1  UNL1        0.0000
     72 C           2.5518   -0.4433    7.4348 C.3     1  UNL1        0.0000
     73 H           2.2180   -1.4849    7.3780 H       1  UNL1        0.0000
     74 C           2.9950   -0.1848    8.8772 C.3     1  UNL1        0.0000
     75 H           2.1460   -0.3297    9.5468 H       1  UNL1        0.0000
     76 H           3.3152    0.8542    8.9693 H       1  UNL1        0.0000
     77 C           4.1443   -1.1065    9.2767 C.3     1  UNL1        0.0000
     78 H           3.8058   -2.1444    9.2408 H       1  UNL1        0.0000
     79 H           4.4549   -0.8913   10.3017 H       1  UNL1        0.0000
     80 C           5.3247   -0.9289    8.3270 C.3     1  UNL1        0.0000
     81 H           6.1393   -1.5985    8.6127 H       1  UNL1        0.0000
     82 H           5.6926    0.0971    8.3956 H       1  UNL1        0.0000
     83 C           4.8921   -1.2133    6.8922 C.3     1  UNL1        0.0000
     84 H           4.5666   -2.2532    6.8135 H       1  UNL1        0.0000
     85 H           5.7372   -1.0748    6.2141 H       1  UNL1        0.0000
     86 C           3.7454   -0.2899    6.4890 C.3     1  UNL1        0.0000
     87 H           4.0878    0.7450    6.5145 H       1  UNL1        0.0000
     88 H           3.4292   -0.5074    5.4679 H       1  UNL1        0.0000
     89 C          -0.0419   -0.6967    2.8614 C.3     1  UNL1        0.0000
     90 H          -0.4523   -1.5942    3.3348 H       1  UNL1        0.0000
     91 C           1.4047   -1.0013    2.4671 C.3     1  UNL1        0.0000
     92 H           1.9850   -1.2251    3.3632 H       1  UNL1        0.0000
     93 H           1.8383   -0.1130    2.0044 H       1  UNL1        0.0000
     94 C           1.4773   -2.1716    1.4899 C.3     1  UNL1        0.0000
     95 H           1.0900   -3.0715    1.9732 H       1  UNL1        0.0000
     96 H           2.5169   -2.3611    1.2131 H       1  UNL1        0.0000
     97 C           0.6525   -1.8753    0.2416 C.3     1  UNL1        0.0000
     98 H           0.6961   -2.7229   -0.4465 H       1  UNL1        0.0000
     99 H           1.0717   -1.0058   -0.2692 H       1  UNL1        0.0000
    100 C          -0.7953   -1.5858    0.6240 C.3     1  UNL1        0.0000
    101 H          -1.2296   -2.4740    1.0885 H       1  UNL1        0.0000
    102 H          -1.3781   -1.3575   -0.2715 H       1  UNL1        0.0000
    103 C          -0.8666   -0.4161    1.6024 C.3     1  UNL1        0.0000
    104 H          -0.4819    0.4852    1.1224 H       1  UNL1        0.0000
    105 H          -1.9044   -0.2280    1.8811 H       1  UNL1        0.0000
    106 C          -4.3053    1.9460    5.0242 C.3     1  UNL1        0.0000
    107 H          -4.4472    2.1779    3.9640 H       1  UNL1        0.0000
    108 C          -4.9110    0.5600    5.2655 C.3     1  UNL1        0.0000
    109 H          -4.7788    0.2939    6.3148 H       1  UNL1        0.0000
    110 H          -4.3755   -0.1789    4.6676 H       1  UNL1        0.0000
    111 C          -6.3970    0.5409    4.9154 C.3     1  UNL1        0.0000
    112 H          -6.8118   -0.4504    5.1112 H       1  UNL1        0.0000
    113 H          -6.5223    0.7511    3.8506 H       1  UNL1        0.0000
    114 C          -7.1523    1.5883    5.7276 C.3     1  UNL1        0.0000
    115 H          -7.0733    1.3464    6.7897 H       1  UNL1        0.0000
    116 H          -8.2111    1.5779    5.4588 H       1  UNL1        0.0000
    117 C          -6.5639    2.9745    5.4816 C.3     1  UNL1        0.0000
    118 H          -7.0966    3.7176    6.0791 H       1  UNL1        0.0000
    119 H          -6.6909    3.2388    4.4291 H       1  UNL1        0.0000
    120 C          -5.0790    2.9907    5.8347 C.3     1  UNL1        0.0000
    121 H          -4.6592    3.9831    5.6516 H       1  UNL1        0.0000
    122 H          -4.9570    2.7691    6.8969 H       1  UNL1        0.0000
    123 C          -2.6900   -0.8014    8.6586 C.3     1  UNL1        0.0000
    124 H          -2.8976   -1.3598    7.7384 H       1  UNL1        0.0000
    125 C          -1.9480   -1.7409    9.6128 C.3     1  UNL1        0.0000
    126 H          -1.7375   -1.2060   10.5403 H       1  UNL1        0.0000
    127 H          -0.9929   -2.0277    9.1718 H       1  UNL1        0.0000
    128 C          -2.7824   -2.9825    9.9169 C.3     1  UNL1        0.0000
    129 H          -2.2422   -3.6346   10.6070 H       1  UNL1        0.0000
    130 H          -2.9522   -3.5404    8.9931 H       1  UNL1        0.0000
    131 C          -4.1266   -2.5889   10.5215 C.3     1  UNL1        0.0000
    132 H          -3.9583   -2.0822   11.4742 H       1  UNL1        0.0000
    133 H          -4.7254   -3.4815   10.7167 H       1  UNL1        0.0000
    134 C          -4.8767   -1.6518    9.5802 C.3     1  UNL1        0.0000
    135 H          -5.8274   -1.3563   10.0300 H       1  UNL1        0.0000
    136 H          -5.0966   -2.1760    8.6472 H       1  UNL1        0.0000
    137 C          -4.0345   -0.4148    9.2806 C.3     1  UNL1        0.0000
    138 H          -4.5744    0.2516    8.6060 H       1  UNL1        0.0000
    139 H          -3.8481    0.1351   10.2043 H       1  UNL1        0.0000
    140 C          -2.4911    4.4253    8.7401 C.3     1  UNL1        0.0000
    141 H          -2.0245    4.3607    7.7498 H       1  UNL1        0.0000
    142 H          -3.5232    4.1060    8.6239 H       1  UNL1        0.0000
    143 H          -2.4978    5.4656    9.0602 H       1  UNL1        0.0000
    144 C           0.2975    3.7785   10.0598 C.3     1  UNL1        0.0000
    145 H           0.4720    4.7293    9.5588 H       1  UNL1        0.0000
    146 H           0.6600    3.8630   11.0798 H       1  UNL1        0.0000
    147 H           0.8899    3.0241    9.5498 H       1  UNL1        0.0000
    148 C          -2.4073    3.3214   11.6577 C.3     1  UNL1        0.0000
    149 H          -3.4500    3.0305   11.5760 H       1  UNL1        0.0000
    150 H          -1.9296    2.6258   12.3399 H       1  UNL1        0.0000
    151 H          -2.3770    4.3036   12.1169 H       1  UNL1        0.0000
@<TRIPOS>BOND
     1    64    63    1
     2    65    63    1
     3    98    97    1
     4   102   100    1
     5    99    97    1
     6    63    66    1
     7    63    60    1
     8    68    66    1
     9    51    49    1
    10    62    60    1
    11    97   100    1
    12    97    94    1
    13    45    43    1
    14    48    46    1
    15   100   101    1
    16   100   103    1
    17    66    67    1
    18    66    69    1
    19    60    61    1
    20    60    57    1
    21    49    50    1
    22    49    46    1
    23    49    52    1
    24   104   103    1
    25    46    43    1
    26    46    47    1
    27    43    44    1
    28    43    40    1
    29    96    94    1
    30    39    38    1
    31    94    95    1
    32    94    91    1
    33    70    69    1
    34    59    57    1
    35   103   105    1
    36   103    89    1
    37    69    71    1
    38    69    55    1
    39    57    58    1
    40    57    55    1
    41    93    91    1
    42    53    52    1
    43    52    38    1
    44    52    54    1
    45    38    40    1
    46    38     2    1
    47    40    42    1
    48    40    41    1
    49    91    89    1
    50    91    92    1
    51    55    56    1
    52    55     3    1
    53    89    90    1
    54    89     5    1
    55    14     2    1
    56    14     5    1
    57     2    11    1
    58     2    10    1
    59    11     3    1
    60   113   111    1
    61   107   106    1
    62     5    17    1
    63     5    16    1
    64     3    12    1
    65     3    15    1
    66   119   117    1
    67    17     6    1
    68   110   108    1
    69   111   112    1
    70   111   108    1
    71   111   114    1
    72    10     1    1
    73   106   108    1
    74   106     6    1
    75   106   120    1
    76   108   109    1
    77    16     4    1
    78    15     6    1
    79   116   114    1
    80    88    86    1
    81   117   114    1
    82   117   120    1
    83   117   118    1
    84     6    18    1
    85   121   120    1
    86   114   115    1
    87   120   122    1
    88    85    83    1
    89    22    21    1
    90    86    87    1
    91    86    83    1
    92    86    72    1
    93    36    35    1
    94     1     9    1
    95     1    21    1
    96     1    13    1
    97    84    83    1
    98    83    80    1
    99     4    13    1
   100     4    72    1
   101     4    19    1
   102    34    32    1
   103    18     7    1
   104    21    35    1
   105    21    23    1
   106    73    72    1
   107    35    32    1
   108    35    37    1
   109    72    74    1
   110   124   123    1
   111   141   140    1
   112    32    33    1
   113    32    29    1
   114    19     7    1
   115    28    26    1
   116     7   123    1
   117     7    20    1
   118    25    23    1
   119    80    82    1
   120    80    81    1
   121    80    77    1
   122    23    26    1
   123    23    24    1
   124   138   137    1
   125   142   140    1
   126   136   134    1
   127   123   137    1
   128   123   125    1
   129   140   143    1
   130   140     8    1
   131    26    29    1
   132    26    27    1
   133    74    76    1
   134    74    77    1
   135    74    75    1
   136   130   128    1
   137    29    31    1
   138    29    30    1
   139   127   125    1
   140    78    77    1
   141    77    79    1
   142   137   134    1
   143   137   139    1
   144    20     8    1
   145   147   144    1
   146   145   144    1
   147   134   135    1
   148   134   131    1
   149   125   128    1
   150   125   126    1
   151   128   131    1
   152   128   129    1
   153     8   144    1
   154     8   148    1
   155   144   146    1
   156   131   133    1
   157   131   132    1
   158   149   148    1
   159   148   151    1
   160   148   150    1
