@<TRIPOS>MOLECULE
3,4
 76 79 0 0 0
SMALL
GASTEIGER

@<TRIPOS>ATOM
      1 SI         11.9351    1.8200    8.7145 Si      1  UNL1        0.0000
      2 SI          8.1096    3.3180    1.8052 Si      1  UNL1        0.0000
      3 O          10.7390    2.9766    6.3513 O.3     1  UNL1        0.0000
      4 O           9.9300    2.0824    3.7045 O.3     1  UNL1        0.0000
      5 C          12.4536    2.7193    4.7216 C.ar    1  UNL1        0.0000
      6 C          11.9166    2.4721    5.9818 C.ar    1  UNL1        0.0000
      7 C          12.6472    1.7429    6.9581 C.ar    1  UNL1        0.0000
      8 C          13.8470    1.1840    6.6082 C.ar    1  UNL1        0.0000
      9 C          15.5888    0.7030    4.9335 C.ar    1  UNL1        0.0000
     10 C          16.0952    0.8564    3.6732 C.ar    1  UNL1        0.0000
     11 C          15.4031    1.6291    2.7286 C.ar    1  UNL1        0.0000
     12 C          14.2262    2.2408    3.0589 C.ar    1  UNL1        0.0000
     13 C          13.6798    2.1081    4.3541 C.ar    1  UNL1        0.0000
     14 C          14.3749    1.3147    5.3067 C.ar    1  UNL1        0.0000
     15 C          10.1317    1.2139    8.9003 C.3     1  UNL1        0.0000
     16 C          13.0024    0.6378    9.7758 C.3     1  UNL1        0.0000
     17 C          12.1401    3.6367    9.3801 C.3     1  UNL1        0.0000
     18 C          10.8689    4.4553    9.1438 C.3     1  UNL1        0.0000
     19 C          13.2980    4.3279    8.6543 C.3     1  UNL1        0.0000
     20 C          12.4366    3.6311   10.8823 C.3     1  UNL1        0.0000
     21 C          11.7273    3.6248    3.7991 C.ar    1  UNL1        0.0000
     22 C          10.4742    3.2484    3.3309 C.ar    1  UNL1        0.0000
     23 C           9.7373    4.0624    2.4338 C.ar    1  UNL1        0.0000
     24 C          10.2709    5.2616    2.0482 C.ar    1  UNL1        0.0000
     25 C          12.0566    6.9553    2.1463 C.ar    1  UNL1        0.0000
     26 C          13.2622    7.3822    2.6297 C.ar    1  UNL1        0.0000
     27 C          13.9836    6.5775    3.5235 C.ar    1  UNL1        0.0000
     28 C          13.4982    5.3584    3.9081 C.ar    1  UNL1        0.0000
     29 C          11.5230    5.7073    2.5263 C.ar    1  UNL1        0.0000
     30 C          12.2642    4.8824    3.4151 C.ar    1  UNL1        0.0000
     31 C           6.8687    2.5939    3.0702 C.3     1  UNL1        0.0000
     32 C           7.1788    4.7521    0.9375 C.3     1  UNL1        0.0000
     33 C           8.5609    1.9632    0.4769 C.3     1  UNL1        0.0000
     34 C           7.4550    1.8646   -0.5761 C.3     1  UNL1        0.0000
     35 C           8.7360    0.5863    1.1233 C.3     1  UNL1        0.0000
     36 C           9.8695    2.3383   -0.2240 C.3     1  UNL1        0.0000
     37 H          14.4158    0.6293    7.3399 H       1  UNL1        0.0000
     38 H          16.1107    0.1051    5.6675 H       1  UNL1        0.0000
     39 H          17.0256    0.3830    3.3953 H       1  UNL1        0.0000
     40 H          15.8075    1.7360    1.7325 H       1  UNL1        0.0000
     41 H          13.6921    2.8292    2.3272 H       1  UNL1        0.0000
     42 H           9.5076    1.5672    8.0791 H       1  UNL1        0.0000
     43 H           9.6966    1.5658    9.8316 H       1  UNL1        0.0000
     44 H          10.0885    0.1280    8.9180 H       1  UNL1        0.0000
     45 H          14.0325    0.9697    9.8451 H       1  UNL1        0.0000
     46 H          12.6123    0.5746   10.7850 H       1  UNL1        0.0000
     47 H          13.0079   -0.3672    9.3661 H       1  UNL1        0.0000
     48 H          10.0355    4.0531    9.7162 H       1  UNL1        0.0000
     49 H          11.0220    5.4907    9.4509 H       1  UNL1        0.0000
     50 H          10.6060    4.4415    8.0877 H       1  UNL1        0.0000
     51 H          13.0793    4.4248    7.5927 H       1  UNL1        0.0000
     52 H          14.2207    3.7610    8.7610 H       1  UNL1        0.0000
     53 H          13.4616    5.3260    9.0612 H       1  UNL1        0.0000
     54 H          11.6471    3.1240   11.4323 H       1  UNL1        0.0000
     55 H          12.5091    4.6521   11.2566 H       1  UNL1        0.0000
     56 H          13.3756    3.1263   11.0910 H       1  UNL1        0.0000
     57 H           9.7290    5.8990    1.3646 H       1  UNL1        0.0000
     58 H          11.4880    7.5721    1.4645 H       1  UNL1        0.0000
     59 H          13.6629    8.3405    2.3330 H       1  UNL1        0.0000
     60 H          14.9290    6.9295    3.9100 H       1  UNL1        0.0000
     61 H          14.0548    4.7448    4.6012 H       1  UNL1        0.0000
     62 H           6.3066    3.3946    3.5442 H       1  UNL1        0.0000
     63 H           7.3796    2.0347    3.8570 H       1  UNL1        0.0000
     64 H           6.1519    1.9361    2.5838 H       1  UNL1        0.0000
     65 H           7.7070    5.1064    0.0591 H       1  UNL1        0.0000
     66 H           6.1955    4.4283    0.6158 H       1  UNL1        0.0000
     67 H           7.0432    5.5981    1.6041 H       1  UNL1        0.0000
     68 H           7.6866    1.0807   -1.2966 H       1  UNL1        0.0000
     69 H           7.3515    2.8017   -1.1152 H       1  UNL1        0.0000
     70 H           6.4985    1.6299   -0.1155 H       1  UNL1        0.0000
     71 H           9.0752   -0.1395    0.3835 H       1  UNL1        0.0000
     72 H           7.7928    0.2328    1.5344 H       1  UNL1        0.0000
     73 H           9.4713    0.6309    1.9240 H       1  UNL1        0.0000
     74 H          10.1039    1.6158   -1.0058 H       1  UNL1        0.0000
     75 H          10.6936    2.3529    0.4860 H       1  UNL1        0.0000
     76 H           9.7976    3.3228   -0.6809 H       1  UNL1        0.0000
@<TRIPOS>BOND
     1    68    34    1
     2    69    34    1
     3    74    36    1
     4    76    36    1
     5    34    70    1
     6    34    33    1
     7    36    33    1
     8    36    75    1
     9    65    32    1
    10    71    35    1
    11    33    35    1
    12    33     2    1
    13    66    32    1
    14    32    67    1
    15    32     2    1
    16    35    72    1
    17    35    73    1
    18    57    24    1
    19    58    25    1
    20    40    11    1
    21     2    23    1
    22     2    31    1
    23    24    23   ar
    24    24    29   ar
    25    25    29   ar
    26    25    26   ar
    27    41    12    1
    28    59    26    1
    29    23    22   ar
    30    29    30   ar
    31    64    31    1
    32    26    27   ar
    33    11    12   ar
    34    11    10   ar
    35    12    13   ar
    36    31    62    1
    37    31    63    1
    38    22     4    1
    39    22    21   ar
    40    39    10    1
    41    30    21   ar
    42    30    28   ar
    43    27    28   ar
    44    27    60    1
    45    10     9   ar
    46    21     5    1
    47    28    61    1
    48    13     5   ar
    49    13    14   ar
    50     5     6   ar
    51     9    14   ar
    52     9    38    1
    53    14     8   ar
    54     6     3    1
    55     6     7   ar
    56     8     7   ar
    57     8    37    1
    58     7     1    1
    59    51    19    1
    60    42    15    1
    61    50    18    1
    62    19    52    1
    63    19    53    1
    64    19    17    1
    65     1    15    1
    66     1    17    1
    67     1    16    1
    68    15    44    1
    69    15    43    1
    70    18    17    1
    71    18    49    1
    72    18    48    1
    73    47    16    1
    74    17    20    1
    75    16    45    1
    76    16    46    1
    77    20    56    1
    78    20    55    1
    79    20    54    1
