@<TRIPOS>MOLECULE
1,2
 16 15 0 0 0
SMALL
GASTEIGER

@<TRIPOS>ATOM
      1 O           4.5830    6.3963   12.5646 O.3     1  UNL1       -0.3807
      2 O           4.4857    7.4303    9.8126 O.3     1  UNL1       -0.3807
      3 C           5.0903    5.5290   13.5603 C.3     1  UNL1        0.0365
      4 C           5.6117    7.1125   11.9078 C.3     1  UNL1        0.0706
      5 C           4.9888    8.1136   10.9458 C.3     1  UNL1        0.0706
      6 C           3.8907    8.3168    8.8854 C.3     1  UNL1        0.0365
      7 H           4.2318    5.0350   14.0109 H       1  UNL1        0.0524
      8 H           5.7541    4.7768   13.1206 H       1  UNL1        0.0524
      9 H           5.6331    6.0982   14.3225 H       1  UNL1        0.0524
     10 H           6.2151    7.6500   12.6529 H       1  UNL1        0.0582
     11 H           6.2540    6.4181   11.3484 H       1  UNL1        0.0582
     12 H           5.7527    8.8369   10.6262 H       1  UNL1        0.0582
     13 H           4.1732    8.6463   11.4541 H       1  UNL1        0.0582
     14 H           4.6173    9.0677    8.5554 H       1  UNL1        0.0524
     15 H           3.5725    7.7102    8.0429 H       1  UNL1        0.0524
     16 H           3.0231    8.8159    9.3292 H       1  UNL1        0.0524
@<TRIPOS>BOND
     1    15     6    1
     2    14     6    1
     3     6    16    1
     4     6     2    1
     5     2     5    1
     6    12     5    1
     7     5    13    1
     8     5     4    1
     9    11     4    1
    10     4     1    1
    11     4    10    1
    12     1     3    1
    13     8     3    1
    14     3     7    1
    15     3     9    1
