@<TRIPOS>MOLECULE
1,2
 16 15 0 0 0
SMALL
GASTEIGER

@<TRIPOS>ATOM
      1 O           9.1738   -1.4296    5.8951 O.3     1  UNL1       -0.3807
      2 O           8.3839   -0.6783    8.6436 O.3     1  UNL1       -0.3807
      3 C           7.8665   -1.7970    7.9489 C.3     1  UNL1        0.0706
      4 C           7.8750   -1.4881    6.4499 C.3     1  UNL1        0.0706
      5 C           8.4077   -0.8684   10.0440 C.3     1  UNL1        0.0365
      6 C           9.7334   -2.6857    5.5671 C.3     1  UNL1        0.0365
      7 H           9.0445   -1.7191   10.3120 H       1  UNL1        0.0524
      8 H           8.8220    0.0426   10.4726 H       1  UNL1        0.0524
      9 H           7.3949   -1.0329   10.4268 H       1  UNL1        0.0524
     10 H           9.8843   -3.3124    6.4503 H       1  UNL1        0.0524
     11 H           9.0949   -3.2111    4.8483 H       1  UNL1        0.0524
     12 H          10.7010   -2.4719    5.1186 H       1  UNL1        0.0524
     13 H           8.4780   -2.6849    8.1676 H       1  UNL1        0.0582
     14 H           6.8338   -1.9880    8.2747 H       1  UNL1        0.0582
     15 H           7.4573   -0.4880    6.3032 H       1  UNL1        0.0582
     16 H           7.2688   -2.2290    5.9148 H       1  UNL1        0.0582
@<TRIPOS>BOND
     1    11     6    1
     2    12     6    1
     3     6     1    1
     4     6    10    1
     5     1     4    1
     6    16     4    1
     7    15     4    1
     8     4     3    1
     9     3    13    1
    10     3    14    1
    11     3     2    1
    12     2     5    1
    13     5     7    1
    14     5     9    1
    15     5     8    1
