@<TRIPOS>MOLECULE
1,2
 16 15 0 0 0
SMALL
GASTEIGER

@<TRIPOS>ATOM
      1 O          -2.3109    3.1239    1.6375 O.3     1  UNL1       -0.3807
      2 O          -0.9104    0.6510    0.8395 O.3     1  UNL1       -0.3807
      3 C          -3.4590    3.7812    2.1320 C.3     1  UNL1        0.0365
      4 C          -2.5676    2.4122    0.4404 C.3     1  UNL1        0.0706
      5 C          -1.2701    1.7310    0.0019 C.3     1  UNL1        0.0706
      6 C          -1.4912   -0.5896    0.4819 C.3     1  UNL1        0.0365
      7 H          -3.1297    4.3723    2.9821 H       1  UNL1        0.0524
      8 H          -4.2136    3.0560    2.4544 H       1  UNL1        0.0524
      9 H          -3.8863    4.4387    1.3670 H       1  UNL1        0.0524
     10 H          -2.8976    3.1118   -0.3411 H       1  UNL1        0.0582
     11 H          -3.3579    1.6680    0.6118 H       1  UNL1        0.0582
     12 H          -1.3543    1.3927   -1.0372 H       1  UNL1        0.0582
     13 H          -0.4568    2.4574    0.0894 H       1  UNL1        0.0582
     14 H          -1.1067   -1.3191    1.1935 H       1  UNL1        0.0524
     15 H          -2.5828   -0.5647    0.5492 H       1  UNL1        0.0524
     16 H          -1.1908   -0.8718   -0.5326 H       1  UNL1        0.0524
@<TRIPOS>BOND
     1    12     5    1
     2    16     6    1
     3    10     4    1
     4     5    13    1
     5     5     4    1
     6     5     2    1
     7     4    11    1
     8     4     1    1
     9     6    15    1
    10     6     2    1
    11     6    14    1
    12     9     3    1
    13     1     3    1
    14     3     8    1
    15     3     7    1
