@<TRIPOS>MOLECULE
2,3
 53 54 0 0 0
SMALL
GASTEIGER

@<TRIPOS>ATOM
      1 S           4.4918    3.6145    5.4729 S.3     1  UNL1       -0.0818
      2 O           3.5240    3.5076    2.7586 O.3     1  UNL1       -0.2864
      3 O           1.7803    2.9228    4.7254 O.3     1  UNL1       -0.2864
      4 C           4.7416    2.9920    2.8303 C.ar    1  UNL1        0.1963
      5 C           5.4492    3.1009    4.0402 C.ar    1  UNL1        0.0600
      6 C           6.7642    2.7161    4.1855 C.ar    1  UNL1       -0.0413
      7 C           7.4292    2.1641    3.1023 C.ar    1  UNL1       -0.0489
      8 C           6.7098    1.9433    1.9341 C.ar    1  UNL1       -0.0514
      9 C           5.3840    2.3134    1.7656 C.ar    1  UNL1        0.0060
     10 C           8.8717    1.7731    3.2182 C.3     1  UNL1       -0.0397
     11 C           4.5998    1.9530    0.5113 C.3     1  UNL1       -0.0090
     12 C           5.4060    1.1046   -0.4765 C.3     1  UNL1       -0.0559
     13 C           3.3720    1.1400    0.9475 C.3     1  UNL1       -0.0559
     14 C           4.1504    3.2299   -0.2056 C.3     1  UNL1       -0.0559
     15 C           2.4079    1.8496    5.1867 C.ar    1  UNL1        0.1963
     16 C           3.7103    2.0079    5.6912 C.ar    1  UNL1        0.0600
     17 C           4.4282    0.9798    6.2639 C.ar    1  UNL1       -0.0413
     18 C           3.8648   -0.2836    6.3292 C.ar    1  UNL1       -0.0489
     19 C           2.5991   -0.4683    5.7868 C.ar    1  UNL1       -0.0514
     20 C           1.8500    0.5476    5.2114 C.ar    1  UNL1        0.0060
     21 C           4.6199   -1.4163    6.9571 C.3     1  UNL1       -0.0397
     22 C           0.4633    0.2862    4.6351 C.3     1  UNL1       -0.0090
     23 C           0.3873    0.8111    3.1948 C.3     1  UNL1       -0.0559
     24 C           0.1033   -1.2033    4.6012 C.3     1  UNL1       -0.0559
     25 C          -0.5666    1.0080    5.5112 C.3     1  UNL1       -0.0559
     26 H           7.2575    2.8423    5.1370 H       1  UNL1        0.0632
     27 H           7.2232    1.4532    1.1230 H       1  UNL1        0.0624
     28 H           9.0077    1.0458    4.0178 H       1  UNL1        0.0278
     29 H           9.2324    1.3385    2.2897 H       1  UNL1        0.0278
     30 H           9.4819    2.6441    3.4536 H       1  UNL1        0.0278
     31 H           5.7381    0.1749   -0.0199 H       1  UNL1        0.0238
     32 H           4.7739    0.8548   -1.3264 H       1  UNL1        0.0238
     33 H           6.2692    1.6488   -0.8527 H       1  UNL1        0.0238
     34 H           2.7480    1.7261    1.6184 H       1  UNL1        0.0238
     35 H           2.7764    0.8567    0.0819 H       1  UNL1        0.0238
     36 H           3.6846    0.2345    1.4663 H       1  UNL1        0.0238
     37 H           5.0122    3.7849   -0.5683 H       1  UNL1        0.0238
     38 H           3.5179    2.9813   -1.0560 H       1  UNL1        0.0238
     39 H           3.5945    3.8656    0.4773 H       1  UNL1        0.0238
     40 H           5.4218    1.1667    6.6411 H       1  UNL1        0.0632
     41 H           2.1882   -1.4638    5.8248 H       1  UNL1        0.0624
     42 H           4.0504   -2.3403    6.9041 H       1  UNL1        0.0278
     43 H           5.5731   -1.5652    6.4513 H       1  UNL1        0.0278
     44 H           4.8291   -1.1973    8.0035 H       1  UNL1        0.0278
     45 H          -0.6258    0.7096    2.8105 H       1  UNL1        0.0238
     46 H           0.6602    1.8650    3.1416 H       1  UNL1        0.0238
     47 H           1.0570    0.2424    2.5530 H       1  UNL1        0.0238
     48 H          -0.8678   -1.3192    4.1243 H       1  UNL1        0.0238
     49 H           0.8301   -1.7730    4.0262 H       1  UNL1        0.0238
     50 H           0.0321   -1.6191    5.6036 H       1  UNL1        0.0238
     51 H          -0.5466    0.6079    6.5233 H       1  UNL1        0.0238
     52 H          -0.3460    2.0680    5.5533 H       1  UNL1        0.0238
     53 H          -1.5666    0.8742    5.1038 H       1  UNL1        0.0238
@<TRIPOS>BOND
     1    32    12    1
     2    38    14    1
     3    33    12    1
     4    37    14    1
     5    12    31    1
     6    12    11    1
     7    14    39    1
     8    14    11    1
     9    35    13    1
    10    11    13    1
    11    11     9    1
    12    13    36    1
    13    13    34    1
    14    27     8    1
    15     9     8   ar
    16     9     4   ar
    17     8     7   ar
    18    29    10    1
    19    47    23    1
    20     2     4    1
    21    45    23    1
    22     4     5   ar
    23     7    10    1
    24     7     6   ar
    25    46    23    1
    26    23    22    1
    27    10    30    1
    28    10    28    1
    29    49    24    1
    30     5     6   ar
    31     5     1    1
    32    48    24    1
    33     6    26    1
    34    24    22    1
    35    24    50    1
    36    22    20    1
    37    22    25    1
    38     3    15    1
    39    53    25    1
    40    15    20   ar
    41    15    16   ar
    42    20    19   ar
    43     1    16    1
    44    25    52    1
    45    25    51    1
    46    16    17   ar
    47    19    41    1
    48    19    18   ar
    49    17    18   ar
    50    17    40    1
    51    18    21    1
    52    43    21    1
    53    42    21    1
    54    21    44    1
