@<TRIPOS>MOLECULE
2,47
 88 95 0 0 0
SMALL
GASTEIGER

@<TRIPOS>ATOM
      1 SI          1.3913    8.3718    8.5870 Si      1  UNL1        0.0000
      2 O           0.7308    8.0359    6.1496 O.3     1  UNL1        0.0000
      3 C          -0.3338    5.8672    5.9638 C.ar    1  UNL1        0.0000
      4 C           0.3008    6.9054    6.6720 C.ar    1  UNL1        0.0000
      5 C           0.6075    6.7534    8.0357 C.ar    1  UNL1        0.0000
      6 C           0.2861    5.5929    8.7086 C.ar    1  UNL1        0.0000
      7 H           0.5260    5.4904    9.7575 H       1  UNL1        0.0000
      8 C          -0.3561    4.5705    8.0226 C.ar    1  UNL1        0.0000
      9 H          -0.6264    3.6593    8.5364 H       1  UNL1        0.0000
     10 C          -0.6544    4.7121    6.6790 C.ar    1  UNL1        0.0000
     11 H          -1.1663    3.9106    6.1645 H       1  UNL1        0.0000
     12 C           3.1123    8.8021    7.9125 C.ar    1  UNL1        0.0000
     13 C           3.6834    8.1227    6.8418 C.ar    1  UNL1        0.0000
     14 H           3.1296    7.3246    6.3725 H       1  UNL1        0.0000
     15 C           4.9400    8.4591    6.3697 C.ar    1  UNL1        0.0000
     16 H           5.3666    7.9190    5.5362 H       1  UNL1        0.0000
     17 C           5.6529    9.4859    6.9653 C.ar    1  UNL1        0.0000
     18 H           6.6334    9.7529    6.5968 H       1  UNL1        0.0000
     19 C           5.1082   10.1608    8.0449 C.ar    1  UNL1        0.0000
     20 H           5.6660   10.9533    8.5240 H       1  UNL1        0.0000
     21 C           3.8542    9.8150    8.5149 C.ar    1  UNL1        0.0000
     22 H           3.4471   10.3281    9.3751 H       1  UNL1        0.0000
     23 C           1.6389    8.2922   10.4746 C.ar    1  UNL1        0.0000
     24 C           2.6462    7.4862   10.9958 C.ar    1  UNL1        0.0000
     25 H           3.2664    6.9207   10.3150 H       1  UNL1        0.0000
     26 C           2.8675    7.4008   12.3579 C.ar    1  UNL1        0.0000
     27 H           3.6552    6.7671   12.7406 H       1  UNL1        0.0000
     28 C           2.0792    8.1296   13.2329 C.ar    1  UNL1        0.0000
     29 H           2.2483    8.0668   14.2984 H       1  UNL1        0.0000
     30 C           1.0744    8.9402   12.7338 C.ar    1  UNL1        0.0000
     31 H           0.4568    9.5138   13.4109 H       1  UNL1        0.0000
     32 C           0.8601    9.0172   11.3687 C.ar    1  UNL1        0.0000
     33 H           0.0742    9.6553   10.9894 H       1  UNL1        0.0000
     34 C           0.1380    9.7896    8.3424 C.ar    1  UNL1        0.0000
     35 C           0.5256   11.1247    8.2386 C.ar    1  UNL1        0.0000
     36 H           1.5761   11.3631    8.1538 H       1  UNL1        0.0000
     37 C          -0.4056   12.1485    8.2663 C.ar    1  UNL1        0.0000
     38 H          -0.0809   13.1763    8.1869 H       1  UNL1        0.0000
     39 C          -1.7512   11.8604    8.4348 C.ar    1  UNL1        0.0000
     40 H          -2.4749   12.6603    8.4943 H       1  UNL1        0.0000
     41 C          -2.1630   10.5427    8.5301 C.ar    1  UNL1        0.0000
     42 H          -3.2090   10.3148    8.6769 H       1  UNL1        0.0000
     43 C          -1.2301    9.5150    8.4558 C.ar    1  UNL1        0.0000
     44 H          -1.5533    8.4896    8.5952 H       1  UNL1        0.0000
     45 C          -0.6204    5.9575    4.5295 C.ar    1  UNL1        0.0000
     46 C          -1.1546    7.1172    3.9198 C.ar    1  UNL1        0.0000
     47 O          -1.4779    8.2356    4.5293 O.3     1  UNL1        0.0000
     48 C          -1.5131    7.0800    2.5568 C.ar    1  UNL1        0.0000
     49 SI         -2.3517    8.6910    2.0664 Si      1  UNL1        0.0000
     50 C          -4.0428    8.9286    2.8990 C.ar    1  UNL1        0.0000
     51 C          -4.4972    8.0647    3.8892 C.ar    1  UNL1        0.0000
     52 H          -3.8518    7.2691    4.2294 H       1  UNL1        0.0000
     53 C          -5.7589    8.2045    4.4408 C.ar    1  UNL1        0.0000
     54 H          -6.0940    7.5179    5.2062 H       1  UNL1        0.0000
     55 C          -6.5974    9.2172    4.0073 C.ar    1  UNL1        0.0000
     56 H          -7.5844    9.3272    4.4344 H       1  UNL1        0.0000
     57 C          -6.1687   10.0781    3.0109 C.ar    1  UNL1        0.0000
     58 H          -6.8234   10.8616    2.6553 H       1  UNL1        0.0000
     59 C          -4.9087    9.9265    2.4614 C.ar    1  UNL1        0.0000
     60 H          -4.5983   10.5828    1.6612 H       1  UNL1        0.0000
     61 C          -2.8010    8.5400    0.2175 C.ar    1  UNL1        0.0000
     62 C          -3.9057    7.7901   -0.1757 C.ar    1  UNL1        0.0000
     63 H          -4.5054    7.3041    0.5813 H       1  UNL1        0.0000
     64 C          -4.2496    7.6596   -1.5087 C.ar    1  UNL1        0.0000
     65 H          -5.1118    7.0714   -1.7909 H       1  UNL1        0.0000
     66 C          -3.4890    8.2838   -2.4833 C.ar    1  UNL1        0.0000
     67 H          -3.7544    8.1852   -3.5263 H       1  UNL1        0.0000
     68 C          -2.3870    9.0351   -2.1125 C.ar    1  UNL1        0.0000
     69 H          -1.7890    9.5256   -2.8680 H       1  UNL1        0.0000
     70 C          -2.0503    9.1583   -0.7760 C.ar    1  UNL1        0.0000
     71 H          -1.1892    9.7478   -0.4946 H       1  UNL1        0.0000
     72 C          -1.1527   10.1557    2.1458 C.ar    1  UNL1        0.0000
     73 C          -1.5773   11.4699    1.9840 C.ar    1  UNL1        0.0000
     74 H          -2.6347   11.6882    1.9622 H       1  UNL1        0.0000
     75 C          -0.6698   12.5026    1.8342 C.ar    1  UNL1        0.0000
     76 H          -1.0216   13.5157    1.6956 H       1  UNL1        0.0000
     77 C           0.6890   12.2368    1.8373 C.ar    1  UNL1        0.0000
     78 H           1.4004   13.0378    1.6942 H       1  UNL1        0.0000
     79 C           1.1305   10.9376    2.0200 C.ar    1  UNL1        0.0000
     80 H           2.1899   10.7241    2.0269 H       1  UNL1        0.0000
     81 C           0.2161    9.9118    2.1790 C.ar    1  UNL1        0.0000
     82 H           0.5668    8.8996    2.3135 H       1  UNL1        0.0000
     83 C          -1.2900    5.9563    1.7909 C.ar    1  UNL1        0.0000
     84 H          -1.5678    5.9550    0.7466 H       1  UNL1        0.0000
     85 C          -0.7117    4.8364    2.3728 C.ar    1  UNL1        0.0000
     86 H          -0.5155    3.9543    1.7807 H       1  UNL1        0.0000
     87 C          -0.4035    4.8422    3.7204 C.ar    1  UNL1        0.0000
     88 H           0.0342    3.9602    4.1669 H       1  UNL1        0.0000
@<TRIPOS>BOND
     1    67    66    1
     2    69    68    1
     3    66    68   ar
     4    66    64   ar
     5    68    70   ar
     6    65    64    1
     7    64    62   ar
     8    70    71    1
     9    70    61   ar
    10    62    61   ar
    11    62    63    1
    12    61    49    1
    13    84    83    1
    14    60    59    1
    15    78    77    1
    16    76    75    1
    17    86    85    1
    18    83    85   ar
    19    83    48   ar
    20    75    77   ar
    21    75    73   ar
    22    77    79   ar
    23    74    73    1
    24    73    72   ar
    25    79    80    1
    26    79    81   ar
    27    49    72    1
    28    49    48    1
    29    49    50    1
    30    72    81   ar
    31    81    82    1
    32    85    87   ar
    33    59    50   ar
    34    59    57   ar
    35    48    46   ar
    36    58    57    1
    37    50    51   ar
    38    57    55   ar
    39    87    88    1
    40    87    45   ar
    41    51    52    1
    42    51    53   ar
    43    46    47    1
    44    46    45   ar
    45    55    56    1
    46    55    53   ar
    47    53    54    1
    48    45     3    1
    49    16    15    1
    50     3     4   ar
    51     3    10   ar
    52     2     4    1
    53    11    10    1
    54    15    13   ar
    55    15    17   ar
    56    14    13    1
    57    18    17    1
    58     4     5   ar
    59    10     8   ar
    60    13    12   ar
    61    17    19   ar
    62    12    21   ar
    63    12     1    1
    64     8     9    1
    65     8     6   ar
    66     5     1    1
    67     5     6   ar
    68    19    21   ar
    69    19    20    1
    70    36    35    1
    71    38    37    1
    72    35    37   ar
    73    35    34   ar
    74    37    39   ar
    75    34    43   ar
    76    34     1    1
    77    39    40    1
    78    39    41   ar
    79    43    41   ar
    80    43    44    1
    81    21    22    1
    82    41    42    1
    83     1    23    1
    84     6     7    1
    85    25    24    1
    86    23    24   ar
    87    23    32   ar
    88    33    32    1
    89    24    26   ar
    90    32    30   ar
    91    26    27    1
    92    26    28   ar
    93    30    28   ar
    94    30    31    1
    95    28    29    1
