@<TRIPOS>MOLECULE
3,4
 88 95 0 0 0
SMALL
GASTEIGER

@<TRIPOS>ATOM
      1 SI          6.0714    9.2480    7.0584 Si      1  UNL1        0.0000
      2 SI         -0.5966   13.8995    7.1664 Si      1  UNL1        0.0000
      3 O           3.5697   10.3956    6.6365 O.3     1  UNL1        0.0000
      4 O           2.0033   12.8076    7.2674 O.3     1  UNL1        0.0000
      5 C           4.0286   12.2659    5.1894 C.ar    1  UNL1        0.0000
      6 C           4.4160   11.1640    5.9834 C.ar    1  UNL1        0.0000
      7 C           5.7723   10.7875    6.0285 C.ar    1  UNL1        0.0000
      8 C           6.7333   11.5312    5.3674 C.ar    1  UNL1        0.0000
      9 H           7.7707   11.2335    5.4305 H       1  UNL1        0.0000
     10 C           6.3626   12.6413    4.6276 C.ar    1  UNL1        0.0000
     11 H           7.1080   13.2302    4.1132 H       1  UNL1        0.0000
     12 C           5.0249   12.9828    4.5319 C.ar    1  UNL1        0.0000
     13 H           4.7342   13.8385    3.9375 H       1  UNL1        0.0000
     14 C           2.6246   12.6484    4.9542 C.ar    1  UNL1        0.0000
     15 C           1.7070   12.9298    5.9898 C.ar    1  UNL1        0.0000
     16 C           0.4277   13.4199    5.6697 C.ar    1  UNL1        0.0000
     17 C           0.0393   13.5632    4.3487 C.ar    1  UNL1        0.0000
     18 H          -0.9525   13.9305    4.1250 H       1  UNL1        0.0000
     19 C           0.9195   13.2451    3.3293 C.ar    1  UNL1        0.0000
     20 H           0.6202   13.3471    2.2964 H       1  UNL1        0.0000
     21 C           2.1973   12.8133    3.6394 C.ar    1  UNL1        0.0000
     22 H           2.8896   12.5797    2.8422 H       1  UNL1        0.0000
     23 C           7.9440    8.9265    7.1202 C.ar    1  UNL1        0.0000
     24 C           8.7140    9.2772    8.2227 C.ar    1  UNL1        0.0000
     25 H           8.2355    9.7416    9.0738 H       1  UNL1        0.0000
     26 C          10.0763    9.0369    8.2514 C.ar    1  UNL1        0.0000
     27 H          10.6567    9.3161    9.1200 H       1  UNL1        0.0000
     28 C          10.6967    8.4377    7.1685 C.ar    1  UNL1        0.0000
     29 H          11.7605    8.2482    7.1878 H       1  UNL1        0.0000
     30 C           9.9456    8.0818    6.0606 C.ar    1  UNL1        0.0000
     31 H          10.4239    7.6141    5.2113 H       1  UNL1        0.0000
     32 C           8.5846    8.3256    6.0420 C.ar    1  UNL1        0.0000
     33 H           8.0016    8.0444    5.1762 H       1  UNL1        0.0000
     34 C           5.3257    7.6584    6.3222 C.ar    1  UNL1        0.0000
     35 C           4.3467    7.6897    5.3337 C.ar    1  UNL1        0.0000
     36 H           3.9954    8.6435    4.9708 H       1  UNL1        0.0000
     37 C           3.8207    6.5221    4.8086 C.ar    1  UNL1        0.0000
     38 H           3.0615    6.5704    4.0409 H       1  UNL1        0.0000
     39 C           4.2697    5.2932    5.2608 C.ar    1  UNL1        0.0000
     40 H           3.8604    4.3800    4.8529 H       1  UNL1        0.0000
     41 C           5.2589    5.2410    6.2285 C.ar    1  UNL1        0.0000
     42 H           5.6277    4.2851    6.5736 H       1  UNL1        0.0000
     43 C           5.7817    6.4122    6.7463 C.ar    1  UNL1        0.0000
     44 H           6.5747    6.3611    7.4794 H       1  UNL1        0.0000
     45 C           5.5488    9.4924    8.8698 C.ar    1  UNL1        0.0000
     46 C           5.3152   10.7808    9.3654 C.ar    1  UNL1        0.0000
     47 H           5.4700   11.6300    8.7126 H       1  UNL1        0.0000
     48 C           5.1005   10.9812   10.7272 C.ar    1  UNL1        0.0000
     49 H           5.0009   11.9822   11.1200 H       1  UNL1        0.0000
     50 C           5.0492    9.9050   11.5933 C.ar    1  UNL1        0.0000
     51 H           4.8831   10.0656   12.6502 H       1  UNL1        0.0000
     52 C           5.2534    8.6207   11.1103 C.ar    1  UNL1        0.0000
     53 H           5.2493    7.7792   11.7894 H       1  UNL1        0.0000
     54 C           5.5078    8.4286    9.7609 C.ar    1  UNL1        0.0000
     55 H           5.7147    7.4303    9.4026 H       1  UNL1        0.0000
     56 C          -2.2194   14.6947    6.5825 C.ar    1  UNL1        0.0000
     57 C          -2.3354   16.0725    6.4386 C.ar    1  UNL1        0.0000
     58 H          -1.4886   16.7001    6.6787 H       1  UNL1        0.0000
     59 C          -3.5123   16.6502    5.9972 C.ar    1  UNL1        0.0000
     60 H          -3.5816   17.7239    5.8923 H       1  UNL1        0.0000
     61 C          -4.6017   15.8529    5.6893 C.ar    1  UNL1        0.0000
     62 H          -5.5225   16.3007    5.3437 H       1  UNL1        0.0000
     63 C          -4.5047   14.4784    5.8271 C.ar    1  UNL1        0.0000
     64 H          -5.3516   13.8504    5.5881 H       1  UNL1        0.0000
     65 C          -3.3241   13.9099    6.2695 C.ar    1  UNL1        0.0000
     66 H          -3.2547   12.8366    6.3778 H       1  UNL1        0.0000
     67 C          -1.1301   12.4138    8.2266 C.ar    1  UNL1        0.0000
     68 C          -2.0612   12.5799    9.2490 C.ar    1  UNL1        0.0000
     69 H          -2.4623   13.5644    9.4431 H       1  UNL1        0.0000
     70 C          -2.5102   11.5086   10.0004 C.ar    1  UNL1        0.0000
     71 H          -3.2284   11.6638   10.7927 H       1  UNL1        0.0000
     72 C          -2.0586   10.2307    9.7117 C.ar    1  UNL1        0.0000
     73 H          -2.4254    9.3853   10.2771 H       1  UNL1        0.0000
     74 C          -1.1616   10.0409    8.6758 C.ar    1  UNL1        0.0000
     75 H          -0.8558    9.0369    8.4167 H       1  UNL1        0.0000
     76 C          -0.6831   11.1223    7.9502 C.ar    1  UNL1        0.0000
     77 H           0.0046   10.9581    7.1311 H       1  UNL1        0.0000
     78 C           0.3113   15.2425    8.1668 C.ar    1  UNL1        0.0000
     79 C          -0.0719   15.6065    9.4550 C.ar    1  UNL1        0.0000
     80 H          -0.8959   15.0953    9.9312 H       1  UNL1        0.0000
     81 C           0.5753   16.6209   10.1387 C.ar    1  UNL1        0.0000
     82 H           0.2542   16.8910   11.1356 H       1  UNL1        0.0000
     83 C           1.6282   17.2960    9.5442 C.ar    1  UNL1        0.0000
     84 H           2.1343   18.0901   10.0744 H       1  UNL1        0.0000
     85 C           2.0233   16.9504    8.2623 C.ar    1  UNL1        0.0000
     86 H           2.8413   17.4752    7.7899 H       1  UNL1        0.0000
     87 C           1.3671   15.9390    7.5833 C.ar    1  UNL1        0.0000
     88 H           1.6809   15.6760    6.5838 H       1  UNL1        0.0000
@<TRIPOS>BOND
     1    20    19    1
     2    22    21    1
     3    19    21   ar
     4    19    17   ar
     5    21    14   ar
     6    13    12    1
     7    38    37    1
     8    11    10    1
     9    18    17    1
    10    17    16   ar
    11    12    10   ar
    12    12     5   ar
    13    10     8   ar
    14    37    39   ar
    15    37    35   ar
    16    40    39    1
    17    14     5    1
    18    14    15   ar
    19    36    35    1
    20    33    32    1
    21     5     6   ar
    22    31    30    1
    23    39    41   ar
    24    35    34   ar
    25    62    61    1
    26     8     9    1
    27     8     7   ar
    28    64    63    1
    29    16    15   ar
    30    16     2    1
    31    61    63   ar
    32    61    59   ar
    33    63    65   ar
    34    60    59    1
    35     6     7   ar
    36     6     3    1
    37    15     4    1
    38    59    57   ar
    39     7     1    1
    40    32    30   ar
    41    32    23   ar
    42    30    28   ar
    43    41    42    1
    44    41    43   ar
    45    65    66    1
    46    65    56   ar
    47    34    43   ar
    48    34     1    1
    49    57    56   ar
    50    57    58    1
    51    56     2    1
    52    88    87    1
    53    43    44    1
    54     1    23    1
    55     1    45    1
    56    23    24   ar
    57    77    76    1
    58     2    78    1
    59     2    67    1
    60    28    29    1
    61    28    26   ar
    62    87    78   ar
    63    87    85   ar
    64    86    85    1
    65    76    67   ar
    66    76    74   ar
    67    78    79   ar
    68    24    26   ar
    69    24    25    1
    70    67    68   ar
    71    26    27    1
    72    85    83   ar
    73    75    74    1
    74    74    72   ar
    75    47    46    1
    76    45    46   ar
    77    45    54   ar
    78    68    69    1
    79    68    70   ar
    80    46    48   ar
    81    55    54    1
    82    79    80    1
    83    79    81   ar
    84    83    84    1
    85    83    81   ar
    86    72    70   ar
    87    72    73    1
    88    54    52   ar
    89    70    71    1
    90    81    82    1
    91    48    49    1
    92    48    50   ar
    93    52    50   ar
    94    52    53    1
    95    50    51    1
