@<TRIPOS>MOLECULE
3,4
 88 95 0 0 0
SMALL
GASTEIGER

@<TRIPOS>ATOM
      1 SI          4.3788    0.7991    2.2037 Si      1  UNL1        0.0000
      2 SI          8.7456    0.4213    9.0015 Si      1  UNL1        0.0000
      3 O           5.3379    0.4567    4.9006 O.3     1  UNL1        0.0000
      4 O           8.0773    0.2792    6.4594 O.3     1  UNL1        0.0000
      5 C           6.4816   -1.6555    4.7791 C.ar    1  UNL1        0.0000
      6 C           5.7524   -0.5842    4.2005 C.ar    1  UNL1        0.0000
      7 C           5.3945   -0.6488    2.8386 C.ar    1  UNL1        0.0000
      8 C           5.7792   -1.7266    2.0616 C.ar    1  UNL1        0.0000
      9 H           5.4983   -1.7544    1.0185 H       1  UNL1        0.0000
     10 C           6.5163   -2.7598    2.6157 C.ar    1  UNL1        0.0000
     11 H           6.8242   -3.5978    2.0076 H       1  UNL1        0.0000
     12 C           6.8442   -2.7212    3.9578 C.ar    1  UNL1        0.0000
     13 H           7.4080   -3.5343    4.3937 H       1  UNL1        0.0000
     14 C           6.7965   -1.7645    6.2147 C.ar    1  UNL1        0.0000
     15 C           7.5324   -0.8111    6.9532 C.ar    1  UNL1        0.0000
     16 C           7.8000   -1.0454    8.3164 C.ar    1  UNL1        0.0000
     17 C           7.3814   -2.2008    8.9397 C.ar    1  UNL1        0.0000
     18 H           7.6088   -2.3599    9.9845 H       1  UNL1        0.0000
     19 C           6.6658   -3.1445    8.2168 C.ar    1  UNL1        0.0000
     20 H           6.3228   -4.0521    8.6918 H       1  UNL1        0.0000
     21 C           6.3872   -2.9195    6.8811 C.ar    1  UNL1        0.0000
     22 H           5.8188   -3.6544    6.3269 H       1  UNL1        0.0000
     23 C           2.6409    0.9689    2.9593 C.ar    1  UNL1        0.0000
     24 C           2.3150    0.4439    4.2064 C.ar    1  UNL1        0.0000
     25 H           3.0765   -0.0599    4.7797 H       1  UNL1        0.0000
     26 C           1.0378    0.5696    4.7235 C.ar    1  UNL1        0.0000
     27 H           0.8055    0.1518    5.6928 H       1  UNL1        0.0000
     28 C           0.0557    1.2247    4.0003 C.ar    1  UNL1        0.0000
     29 H          -0.9426    1.3232    4.4021 H       1  UNL1        0.0000
     30 C           0.3584    1.7457    2.7535 C.ar    1  UNL1        0.0000
     31 H          -0.4054    2.2498    2.1781 H       1  UNL1        0.0000
     32 C           1.6358    1.6134    2.2404 C.ar    1  UNL1        0.0000
     33 H           1.8551    2.0023    1.2556 H       1  UNL1        0.0000
     34 C           4.0713    0.5020    0.3488 C.ar    1  UNL1        0.0000
     35 C           4.7713    1.1898   -0.6359 C.ar    1  UNL1        0.0000
     36 H           5.5165    1.9164   -0.3438 H       1  UNL1        0.0000
     37 C           4.5284    0.9642   -1.9794 C.ar    1  UNL1        0.0000
     38 H           5.0830    1.5120   -2.7284 H       1  UNL1        0.0000
     39 C           3.5750    0.0375   -2.3647 C.ar    1  UNL1        0.0000
     40 H           3.3820   -0.1400   -3.4130 H       1  UNL1        0.0000
     41 C           2.8697   -0.6606   -1.3984 C.ar    1  UNL1        0.0000
     42 H           2.1247   -1.3865   -1.6923 H       1  UNL1        0.0000
     43 C           3.1185   -0.4270   -0.0585 C.ar    1  UNL1        0.0000
     44 H           2.5625   -0.9711    0.6920 H       1  UNL1        0.0000
     45 C           5.3383    2.4388    2.2875 C.ar    1  UNL1        0.0000
     46 C           6.6942    2.4709    2.5977 C.ar    1  UNL1        0.0000
     47 H           7.2052    1.5456    2.8432 H       1  UNL1        0.0000
     48 C           7.4102    3.6560    2.5407 C.ar    1  UNL1        0.0000
     49 H           8.4653    3.6640    2.7666 H       1  UNL1        0.0000
     50 C           6.7782    4.8339    2.1791 C.ar    1  UNL1        0.0000
     51 H           7.3372    5.7577    2.1254 H       1  UNL1        0.0000
     52 C           5.4264    4.8217    1.8765 C.ar    1  UNL1        0.0000
     53 H           4.9294    5.7364    1.5834 H       1  UNL1        0.0000
     54 C           4.7194    3.6343    1.9309 C.ar    1  UNL1        0.0000
     55 H           3.6676    3.6310    1.6827 H       1  UNL1        0.0000
     56 C           9.0913    0.1283   10.8513 C.ar    1  UNL1        0.0000
     57 C          10.2676   -0.4824   11.2715 C.ar    1  UNL1        0.0000
     58 H          10.9942   -0.7873   10.5315 H       1  UNL1        0.0000
     59 C          10.5241   -0.7016   12.6130 C.ar    1  UNL1        0.0000
     60 H          11.4459   -1.1779   12.9171 H       1  UNL1        0.0000
     61 C           9.6007   -0.3096   13.5671 C.ar    1  UNL1        0.0000
     62 H           9.7981   -0.4769   14.6165 H       1  UNL1        0.0000
     63 C           8.4220    0.2981   13.1683 C.ar    1  UNL1        0.0000
     64 H           7.6963    0.6062   13.9082 H       1  UNL1        0.0000
     65 C           8.1746    0.5112   11.8243 C.ar    1  UNL1        0.0000
     66 H           7.2535    0.9884   11.5203 H       1  UNL1        0.0000
     67 C          10.4734    0.6134    8.2238 C.ar    1  UNL1        0.0000
     68 C          11.3266    1.6568    8.5724 C.ar    1  UNL1        0.0000
     69 H          11.0049    2.3861    9.3017 H       1  UNL1        0.0000
     70 C          12.5883    1.7726    8.0162 C.ar    1  UNL1        0.0000
     71 H          13.2331    2.5918    8.3033 H       1  UNL1        0.0000
     72 C          13.0290    0.8347    7.0977 C.ar    1  UNL1        0.0000
     73 H          14.0148    0.9201    6.6624 H       1  UNL1        0.0000
     74 C          12.2022   -0.2209    6.7510 C.ar    1  UNL1        0.0000
     75 H          12.5436   -0.9634    6.0434 H       1  UNL1        0.0000
     76 C          10.9414   -0.3276    7.3118 C.ar    1  UNL1        0.0000
     77 H          10.3030   -1.1537    7.0372 H       1  UNL1        0.0000
     78 C           7.6436    1.9723    8.9787 C.ar    1  UNL1        0.0000
     79 C           8.0527    3.1546    9.5901 C.ar    1  UNL1        0.0000
     80 H           9.0443    3.2176   10.0141 H       1  UNL1        0.0000
     81 C           7.2081    4.2445    9.6936 C.ar    1  UNL1        0.0000
     82 H           7.5514    5.1518   10.1712 H       1  UNL1        0.0000
     83 C           5.9116    4.1610    9.2138 C.ar    1  UNL1        0.0000
     84 H           5.2375    4.9998    9.3233 H       1  UNL1        0.0000
     85 C           5.4807    2.9886    8.6168 C.ar    1  UNL1        0.0000
     86 H           4.4615    2.9008    8.2735 H       1  UNL1        0.0000
     87 C           6.3443    1.9148    8.4826 C.ar    1  UNL1        0.0000
     88 H           5.9802    1.0016    8.0318 H       1  UNL1        0.0000
@<TRIPOS>BOND
     1    40    39    1
     2    38    37    1
     3    39    37   ar
     4    39    41   ar
     5    37    35   ar
     6    42    41    1
     7    41    43   ar
     8    35    36    1
     9    35    34   ar
    10    43    34   ar
    11    43    44    1
    12    34     1    1
    13     9     8    1
    14    33    32    1
    15    53    52    1
    16    55    54    1
    17    52    54   ar
    18    52    50   ar
    19    54    45   ar
    20    11    10    1
    21     8    10   ar
    22     8     7   ar
    23    51    50    1
    24    31    30    1
    25    50    48   ar
    26     1    45    1
    27     1     7    1
    28     1    23    1
    29    32    30   ar
    30    32    23   ar
    31    45    46   ar
    32    48    46   ar
    33    48    49    1
    34    46    47    1
    35    10    12   ar
    36    30    28   ar
    37     7     6   ar
    38    23    24   ar
    39    12    13    1
    40    12     5   ar
    41    28    29    1
    42    28    26   ar
    43     6     5   ar
    44     6     3    1
    45    24    26   ar
    46    24    25    1
    47    26    27    1
    48     5    14    1
    49    75    74    1
    50    14    21   ar
    51    14    15   ar
    52    22    21    1
    53     4    15    1
    54    73    72    1
    55    74    72   ar
    56    74    76   ar
    57    21    19   ar
    58    15    16   ar
    59    77    76    1
    60    72    70   ar
    61    76    67   ar
    62    70    71    1
    63    70    68   ar
    64    88    87    1
    65    19    20    1
    66    19    17   ar
    67    67    68   ar
    68    67     2    1
    69    86    85    1
    70    16    17   ar
    71    16     2    1
    72    87    85   ar
    73    87    78   ar
    74    68    69    1
    75    85    83   ar
    76    17    18    1
    77    78     2    1
    78    78    79   ar
    79     2    56    1
    80    83    84    1
    81    83    81   ar
    82    79    81   ar
    83    79    80    1
    84    81    82    1
    85    58    57    1
    86    56    57   ar
    87    56    65   ar
    88    57    59   ar
    89    66    65    1
    90    65    63   ar
    91    59    60    1
    92    59    61   ar
    93    63    61   ar
    94    63    64    1
    95    61    62    1
