@<TRIPOS>MOLECULE
1,2
 16 15 0 0 0
SMALL
GASTEIGER

@<TRIPOS>ATOM
      1 O          -4.3957    2.9320    7.7373 O.3     1  UNL1       -0.3807
      2 O          -3.5825    2.0542    5.2446 O.3     1  UNL1       -0.3807
      3 C          -4.5581    2.8738    9.1484 C.3     1  UNL1        0.0365
      4 H          -5.6133    2.6604    9.3217 H       1  UNL1        0.0524
      5 H          -4.2698    3.8281    9.6051 H       1  UNL1        0.0524
      6 H          -3.9520    2.0696    9.5750 H       1  UNL1        0.0524
      7 C          -3.0282    2.9846    7.3673 C.3     1  UNL1        0.0706
      8 H          -2.5328    3.8312    7.8650 H       1  UNL1        0.0582
      9 H          -2.5295    2.0489    7.6582 H       1  UNL1        0.0582
     10 C          -2.9348    3.1550    5.8568 C.3     1  UNL1        0.0706
     11 H          -3.4202    4.0951    5.5520 H       1  UNL1        0.0582
     12 H          -1.8763    3.1836    5.5604 H       1  UNL1        0.0582
     13 C          -3.3325    2.0008    3.8502 C.3     1  UNL1        0.0365
     14 H          -3.7115    2.8955    3.3444 H       1  UNL1        0.0524
     15 H          -3.8491    1.1208    3.4748 H       1  UNL1        0.0524
     16 H          -2.2572    1.9096    3.6577 H       1  UNL1        0.0524
@<TRIPOS>BOND
     1    14    13    1
     2    15    13    1
     3    16    13    1
     4    13     2    1
     5     2    10    1
     6    11    10    1
     7    12    10    1
     8    10     7    1
     9     7     9    1
    10     7     1    1
    11     7     8    1
    12     1     3    1
    13     3     4    1
    14     3     6    1
    15     3     5    1
