@<TRIPOS>MOLECULE
1,2
 16 15 0 0 0
SMALL
GASTEIGER

@<TRIPOS>ATOM
      1 O          -4.5944    2.9081    7.7723 O.3     1  UNL1       -0.3807
      2 O          -3.7974    1.8846    5.3424 O.3     1  UNL1       -0.3807
      3 C          -4.7324    2.9361    9.1871 C.3     1  UNL1        0.0365
      4 H          -5.7747    2.6943    9.3960 H       1  UNL1        0.0524
      5 H          -4.4757    3.9287    9.5757 H       1  UNL1        0.0524
      6 H          -4.0854    2.1869    9.6535 H       1  UNL1        0.0524
      7 C          -3.2339    2.9930    7.3778 C.3     1  UNL1        0.0706
      8 H          -2.7734    3.8988    7.7987 H       1  UNL1        0.0582
      9 H          -2.6910    2.1081    7.7404 H       1  UNL1        0.0582
     10 C          -3.1634    3.0425    5.8568 C.3     1  UNL1        0.0706
     11 H          -3.6658    3.9464    5.4802 H       1  UNL1        0.0582
     12 H          -2.1090    3.0654    5.5449 H       1  UNL1        0.0582
     13 C          -3.5796    1.7455    3.9447 C.3     1  UNL1        0.0365
     14 H          -4.0224    2.5794    3.3902 H       1  UNL1        0.0524
     15 H          -4.0547    0.8143    3.6483 H       1  UNL1        0.0524
     16 H          -2.5059    1.6947    3.7324 H       1  UNL1        0.0524
@<TRIPOS>BOND
     1    14    13    1
     2    15    13    1
     3    16    13    1
     4    13     2    1
     5     2    10    1
     6    11    10    1
     7    12    10    1
     8    10     7    1
     9     7     9    1
    10     7     1    1
    11     7     8    1
    12     1     3    1
    13     3     4    1
    14     3     5    1
    15     3     6    1
