@<TRIPOS>MOLECULE
1,2
 34 37 0 0 0
SMALL
GASTEIGER

@<TRIPOS>ATOM
      1 O           7.2299    3.5457    4.3658 O.3     1  UNL1       -0.2872
      2 O           4.7990    4.8972    5.5393 O.3     1  UNL1       -0.2872
      3 C           5.2914    3.6495    2.9700 C.ar    1  UNL1        0.0407
      4 C           6.3673    2.9625    3.5344 C.ar    1  UNL1        0.1874
      5 C           6.6058    1.6126    3.1569 C.ar    1  UNL1       -0.0137
      6 C           5.7723    0.9555    2.3046 C.ar    1  UNL1       -0.0504
      7 C           3.7175    0.9122    0.9517 C.ar    1  UNL1       -0.0540
      8 C           2.5998    1.5353    0.4723 C.ar    1  UNL1       -0.0612
      9 C           2.3397    2.8667    0.8260 C.ar    1  UNL1       -0.0611
     10 C           3.2039    3.5558    1.6301 C.ar    1  UNL1       -0.0533
     11 C           4.6220    1.5922    1.7907 C.ar    1  UNL1       -0.0171
     12 C           4.3796    2.9503    2.1269 C.ar    1  UNL1       -0.0064
     13 C           5.0960    5.1075    3.1758 C.ar    1  UNL1        0.0407
     14 C           4.8032    5.6396    4.4327 C.ar    1  UNL1        0.1874
     15 C           4.4237    7.0059    4.5376 C.ar    1  UNL1       -0.0137
     16 C           4.4080    7.8247    3.4504 C.ar    1  UNL1       -0.0504
     17 C           4.8487    8.1885    1.0569 C.ar    1  UNL1       -0.0540
     18 C           5.2406    7.7123   -0.1625 C.ar    1  UNL1       -0.0612
     19 C           5.6081    6.3662   -0.2986 C.ar    1  UNL1       -0.0611
     20 C           5.5608    5.5191    0.7730 C.ar    1  UNL1       -0.0533
     21 C           4.7995    7.3431    2.1826 C.ar    1  UNL1       -0.0171
     22 C           5.1438    5.9724    2.0443 C.ar    1  UNL1       -0.0064
     23 H           7.4926    1.1380    3.5570 H       1  UNL1        0.0656
     24 H           5.9756   -0.0665    2.0173 H       1  UNL1        0.0625
     25 H           3.9240   -0.1187    0.7004 H       1  UNL1        0.0624
     26 H           1.9097    1.0075   -0.1694 H       1  UNL1        0.0618
     27 H           1.4440    3.3472    0.4603 H       1  UNL1        0.0618
     28 H           2.9838    4.5759    1.9056 H       1  UNL1        0.0624
     29 H           4.1259    7.3611    5.5155 H       1  UNL1        0.0656
     30 H           4.1051    8.8580    3.5458 H       1  UNL1        0.0625
     31 H           4.5757    9.2271    1.1810 H       1  UNL1        0.0624
     32 H           5.2781    8.3667   -1.0209 H       1  UNL1        0.0618
     33 H           5.9351    6.0007   -1.2610 H       1  UNL1        0.0618
     34 H           5.8591    4.4882    0.6573 H       1  UNL1        0.0624
@<TRIPOS>BOND
     1    33    19    1
     2    32    18    1
     3    19    18   ar
     4    19    20   ar
     5    26     8    1
     6    18    17   ar
     7    27     9    1
     8     8     9   ar
     9     8     7   ar
    10    34    20    1
    11    25     7    1
    12    20    22   ar
    13     9    10   ar
    14     7    11   ar
    15    17    31    1
    16    17    21   ar
    17    10    28    1
    18    10    12   ar
    19    11    12   ar
    20    11     6   ar
    21    24     6    1
    22    22    21   ar
    23    22    13   ar
    24    12     3   ar
    25    21    16   ar
    26     6     5   ar
    27     3    13    1
    28     3     4   ar
    29     5     4   ar
    30     5    23    1
    31    13    14   ar
    32    16    30    1
    33    16    15   ar
    34     4     1    1
    35    14    15   ar
    36    14     2    1
    37    15    29    1
