@<TRIPOS>MOLECULE
1,2
 14 13 0 0 0
SMALL
GASTEIGER

@<TRIPOS>ATOM
      1 O           1.2592    2.2119   11.7545 O.3     1  UNL1       -0.2198
      2 O          -0.8728    1.1573   13.0066 O.2     1  UNL1       -0.2932
      3 C           0.6541    1.8674   10.6992 C.3     1  UNL1        0.1583
      4 C          -1.2236    0.7938   11.8491 C.2     1  UNL1        0.1520
      5 C          -0.5279    1.1204   10.6805 C.2     1  UNL1       -0.0044
      6 H          -0.9409    0.8251    9.7287 H       1  UNL1        0.0637
      7 C           1.2302    2.3195    9.3779 C.3     1  UNL1       -0.0258
      8 H           2.0300    3.0337    9.5556 H       1  UNL1        0.0263
      9 H           0.4582    2.7674    8.7571 H       1  UNL1        0.0263
     10 H           1.6421    1.4607    8.8517 H       1  UNL1        0.0263
     11 C          -2.5164    0.0182   11.7136 C.3     1  UNL1       -0.0022
     12 H          -2.8792   -0.2596   12.7006 H       1  UNL1        0.0309
     13 H          -2.3577   -0.8741   11.1133 H       1  UNL1        0.0309
     14 H          -3.2658    0.6332   11.2186 H       1  UNL1        0.0309
@<TRIPOS>BOND
     1     9     7    1
     2    10     7    1
     3     7     8    1
     4     7     3    1
     5     6     5    1
     6     5     3    1
     7     5     4    2
     8     3     1    1
     9    13    11    1
    10    14    11    1
    11    11     4    1
    12    11    12    1
    13     4     2    1
