@<TRIPOS>MOLECULE
4,5
 73 78 0 0 0
SMALL
GASTEIGER

@<TRIPOS>ATOM
      1 SI          4.4437   -0.8495   14.7426 Si      1  UNL1        0.0000
      2 SI          4.0027    2.1612   14.7454 Si      1  UNL1        0.0000
      3 SI          2.5117   -1.0050   12.3377 Si      1  UNL1        0.0000
      4 O           1.3833   -0.1084   13.0084 O.3     1  UNL1        0.0000
      5 O           2.5435    1.9877   14.1471 O.3     1  UNL1        0.0000
      6 O           4.8018    0.7305   14.8399 O.3     1  UNL1        0.0000
      7 O           3.7864   -1.2958   13.3364 O.3     1  UNL1        0.0000
      8 C           6.0968   -1.7422   14.8690 C.ar    1  UNL1        0.0000
      9 C           6.2291   -3.0501   14.4163 C.ar    1  UNL1        0.0000
     10 H           5.3822   -3.5211   13.9403 H       1  UNL1        0.0000
     11 C           7.4181   -3.7414   14.5623 C.ar    1  UNL1        0.0000
     12 H           7.5034   -4.7568   14.2011 H       1  UNL1        0.0000
     13 C           8.5013   -3.1335   15.1748 C.ar    1  UNL1        0.0000
     14 H           9.4312   -3.6716   15.2928 H       1  UNL1        0.0000
     15 C           8.3861   -1.8331   15.6364 C.ar    1  UNL1        0.0000
     16 H           9.2286   -1.3547   16.1157 H       1  UNL1        0.0000
     17 C           7.1928   -1.1493   15.4851 C.ar    1  UNL1        0.0000
     18 H           7.0992   -0.1351   15.8424 H       1  UNL1        0.0000
     19 C           3.3071   -1.3933   16.1643 C.ar    1  UNL1        0.0000
     20 C           3.8281   -1.7618   17.4048 C.ar    1  UNL1        0.0000
     21 H           4.8976   -1.7183   17.5563 H       1  UNL1        0.0000
     22 C           3.0058   -2.1848   18.4342 C.ar    1  UNL1        0.0000
     23 H           3.4316   -2.4632   19.3878 H       1  UNL1        0.0000
     24 C           1.6368   -2.2616   18.2373 C.ar    1  UNL1        0.0000
     25 H           0.9921   -2.6014   19.0356 H       1  UNL1        0.0000
     26 C           1.1007   -1.9028   17.0109 C.ar    1  UNL1        0.0000
     27 H           0.0337   -1.9621   16.8493 H       1  UNL1        0.0000
     28 C           1.9269   -1.4672   15.9873 C.ar    1  UNL1        0.0000
     29 H           1.4961   -1.1786   15.0368 H       1  UNL1        0.0000
     30 C           4.9549    3.3355   13.5998 C.ar    1  UNL1        0.0000
     31 C           6.3377    3.4798   13.6136 C.ar    1  UNL1        0.0000
     32 H           6.9186    2.8859   14.3030 H       1  UNL1        0.0000
     33 C           6.9716    4.3608   12.7541 C.ar    1  UNL1        0.0000
     34 H           8.0479    4.4573   12.7746 H       1  UNL1        0.0000
     35 C           6.2275    5.1191   11.8661 C.ar    1  UNL1        0.0000
     36 H           6.7209    5.8072   11.1941 H       1  UNL1        0.0000
     37 C           4.8479    4.9888   11.8393 C.ar    1  UNL1        0.0000
     38 H           4.2647    5.5771   11.1441 H       1  UNL1        0.0000
     39 C           4.2200    4.1060   12.6996 C.ar    1  UNL1        0.0000
     40 H           3.1419    3.9838   12.6751 H       1  UNL1        0.0000
     41 C           3.8729    2.8630   16.5095 C.ar    1  UNL1        0.0000
     42 C           3.8620    4.2374   16.7278 C.ar    1  UNL1        0.0000
     43 H           4.0155    4.9000   15.8872 H       1  UNL1        0.0000
     44 C           3.6739    4.7639   17.9936 C.ar    1  UNL1        0.0000
     45 H           3.6701    5.8350   18.1412 H       1  UNL1        0.0000
     46 C           3.4944    3.9172   19.0747 C.ar    1  UNL1        0.0000
     47 H           3.3470    4.3246   20.0649 H       1  UNL1        0.0000
     48 C           3.5141    2.5465   18.8799 C.ar    1  UNL1        0.0000
     49 H           3.3841    1.8795   19.7206 H       1  UNL1        0.0000
     50 C           3.7014    2.0290   17.6098 C.ar    1  UNL1        0.0000
     51 H           3.7238    0.9591   17.4631 H       1  UNL1        0.0000
     52 C           3.2957   -0.1931   10.8065 C.ar    1  UNL1        0.0000
     53 C           4.0078    0.9913   10.9759 C.ar    1  UNL1        0.0000
     54 H           4.0725    1.4205   11.9654 H       1  UNL1        0.0000
     55 C           4.6297    1.6141    9.9082 C.ar    1  UNL1        0.0000
     56 H           5.1817    2.5299   10.0670 H       1  UNL1        0.0000
     57 C           4.5487    1.0587    8.6410 C.ar    1  UNL1        0.0000
     58 H           5.0370    1.5373    7.8040 H       1  UNL1        0.0000
     59 C           3.8399   -0.1165    8.4518 C.ar    1  UNL1        0.0000
     60 H           3.7753   -0.5548    7.4653 H       1  UNL1        0.0000
     61 C           3.2199   -0.7335    9.5262 C.ar    1  UNL1        0.0000
     62 H           2.6732   -1.6539    9.3743 H       1  UNL1        0.0000
     63 C           1.7642   -2.6943   11.9192 C.ar    1  UNL1        0.0000
     64 C           2.5535   -3.7621   11.5078 C.ar    1  UNL1        0.0000
     65 H           3.6229   -3.6251   11.4485 H       1  UNL1        0.0000
     66 C           1.9905   -4.9833   11.1816 C.ar    1  UNL1        0.0000
     67 H           2.6195   -5.8035   10.8651 H       1  UNL1        0.0000
     68 C           0.6185   -5.1562   11.2589 C.ar    1  UNL1        0.0000
     69 H           0.1761   -6.1085   11.0026 H       1  UNL1        0.0000
     70 C          -0.1836   -4.1039   11.6685 C.ar    1  UNL1        0.0000
     71 H          -1.2548   -4.2377   11.7335 H       1  UNL1        0.0000
     72 C           0.3884   -2.8868   11.9936 C.ar    1  UNL1        0.0000
     73 H          -0.2269   -2.0593   12.3207 H       1  UNL1        0.0000
@<TRIPOS>BOND
     1    60    59    1
     2    58    57    1
     3    59    57   ar
     4    59    61   ar
     5    57    55   ar
     6    62    61    1
     7    61    52   ar
     8    55    56    1
     9    55    53   ar
    10    52    53   ar
    11    52     3    1
    12    67    66    1
    13    53    54    1
    14    69    68    1
    15    38    37    1
    16    66    68   ar
    17    66    64   ar
    18    36    35    1
    19    68    70   ar
    20    65    64    1
    21    64    63   ar
    22    70    71    1
    23    70    72   ar
    24    37    35   ar
    25    37    39   ar
    26    35    33   ar
    27    63    72   ar
    28    63     3    1
    29    72    73    1
    30     3     4    1
    31     3     7    1
    32    40    39    1
    33    39    30   ar
    34    33    34    1
    35    33    31   ar
    36     7     1    1
    37    30    31   ar
    38    30     2    1
    39    31    32    1
    40    10     9    1
    41     5     2    1
    42    12    11    1
    43     9    11   ar
    44     9     8   ar
    45    11    13   ar
    46     1     6    1
    47     1     8    1
    48     1    19    1
    49     2     6    1
    50     2    41    1
    51     8    17   ar
    52    29    28    1
    53    13    14    1
    54    13    15   ar
    55    17    15   ar
    56    17    18    1
    57    15    16    1
    58    43    42    1
    59    28    19   ar
    60    28    26   ar
    61    19    20   ar
    62    41    42   ar
    63    41    50   ar
    64    42    44   ar
    65    27    26    1
    66    26    24   ar
    67    20    21    1
    68    20    22   ar
    69    51    50    1
    70    50    48   ar
    71    44    45    1
    72    44    46   ar
    73    24    22   ar
    74    24    25    1
    75    22    23    1
    76    48    46   ar
    77    48    49    1
    78    46    47    1
