@<TRIPOS>MOLECULE
1,2
 14 13 0 0 0
SMALL
GASTEIGER

@<TRIPOS>ATOM
      1 O           0.3699    1.1580   15.3199 O.3     1  UNL1       -0.2198
      2 O           0.3720    3.4020   13.8509 O.2     1  UNL1       -0.2932
      3 C           0.4310    1.9474   16.3101 C.3     1  UNL1        0.1583
      4 C           0.5294    3.9871   14.9581 C.2     1  UNL1        0.1520
      5 C           0.5454    3.3341   16.1962 C.2     1  UNL1       -0.0044
      6 H           0.6366    3.9279   17.0915 H       1  UNL1        0.0637
      7 C           0.3199    1.3432   17.6889 C.3     1  UNL1       -0.0258
      8 H           1.0376    0.5311   17.7839 H       1  UNL1        0.0263
      9 H          -0.6760    0.9182   17.8099 H       1  UNL1        0.0263
     10 H           0.4950    2.0836   18.4621 H       1  UNL1        0.0263
     11 C           0.6647    5.4931   14.9514 C.3     1  UNL1       -0.0022
     12 H           0.5582    5.8667   13.9359 H       1  UNL1        0.0309
     13 H           1.6462    5.7623   15.3361 H       1  UNL1        0.0309
     14 H          -0.0880    5.9474   15.5915 H       1  UNL1        0.0309
@<TRIPOS>BOND
     1     2     4    1
     2    12    11    1
     3    11     4    1
     4    11    13    1
     5    11    14    1
     6     4     5    2
     7     1     3    1
     8     5     3    1
     9     5     6    1
    10     3     7    1
    11     7     8    1
    12     7     9    1
    13     7    10    1
