@<TRIPOS>MOLECULE
2,3
 44 43 0 0 0
SMALL
GASTEIGER

@<TRIPOS>ATOM
      1 SI         13.9495   -0.2833   34.1279 Si      1  UNL1        0.0000
      2 O          13.6069    1.1510   34.7086 O.3     1  UNL1        0.0000
      3 O          12.9123   -1.1602   35.1278 O.3     1  UNL1        0.0000
      4 O          13.4752   -0.5050   32.5677 O.3     1  UNL1        0.0000
      5 O          15.4445   -0.8985   34.2348 O.3     1  UNL1        0.0000
      6 C          12.9294   -2.5610   35.4387 C.3     1  UNL1        0.0000
      7 C          12.7525   -3.3613   34.1456 C.3     1  UNL1        0.0000
      8 C          14.2439   -2.9156   36.1372 C.3     1  UNL1        0.0000
      9 C          11.7608   -2.8136   36.3927 C.3     1  UNL1        0.0000
     10 C          16.5795   -0.6851   33.4058 C.3     1  UNL1        0.0000
     11 C          17.7987   -1.1484   34.2093 C.3     1  UNL1        0.0000
     12 C          16.4303   -1.5242   32.1354 C.3     1  UNL1        0.0000
     13 C          16.7084    0.7948   33.0569 C.3     1  UNL1        0.0000
     14 C          12.4090    0.1532   31.8986 C.3     1  UNL1        0.0000
     15 C          11.9363   -0.8068   30.8016 C.3     1  UNL1        0.0000
     16 C          12.9647    1.4399   31.2825 C.3     1  UNL1        0.0000
     17 C          11.2561    0.4749   32.8593 C.3     1  UNL1        0.0000
     18 H          14.3512   -2.2841   37.0162 H       1  UNL1        0.0000
     19 H          15.0804   -2.7357   35.4702 H       1  UNL1        0.0000
     20 H          14.2431   -3.9600   36.4393 H       1  UNL1        0.0000
     21 H          12.7560   -1.0239   30.1216 H       1  UNL1        0.0000
     22 H          11.1149   -0.3718   30.2403 H       1  UNL1        0.0000
     23 H          11.6092   -1.7398   31.2505 H       1  UNL1        0.0000
     24 H          11.8689   -2.1613   37.2609 H       1  UNL1        0.0000
     25 H          10.8174   -2.5920   35.9005 H       1  UNL1        0.0000
     26 H          11.7574   -3.8535   36.7146 H       1  UNL1        0.0000
     27 H          17.6672   -2.1807   34.5227 H       1  UNL1        0.0000
     28 H          17.9182   -0.5305   35.0941 H       1  UNL1        0.0000
     29 H          18.6957   -1.0769   33.6005 H       1  UNL1        0.0000
     30 H          17.6372    0.9817   32.5246 H       1  UNL1        0.0000
     31 H          16.6857    1.3829   33.9694 H       1  UNL1        0.0000
     32 H          15.8692    1.0961   32.4385 H       1  UNL1        0.0000
     33 H          11.8138   -3.0764   33.6747 H       1  UNL1        0.0000
     34 H          12.7339   -4.4274   34.3575 H       1  UNL1        0.0000
     35 H          13.5688   -3.1454   33.4610 H       1  UNL1        0.0000
     36 H          10.9134   -0.4339   33.3657 H       1  UNL1        0.0000
     37 H          11.5784    1.2128   33.6136 H       1  UNL1        0.0000
     38 H          10.4180    0.8818   32.2955 H       1  UNL1        0.0000
     39 H          17.2602   -1.3389   31.4594 H       1  UNL1        0.0000
     40 H          16.4071   -2.5811   32.3879 H       1  UNL1        0.0000
     41 H          15.4961   -1.2630   31.6492 H       1  UNL1        0.0000
     42 H          13.7894    1.2023   30.6142 H       1  UNL1        0.0000
     43 H          12.1958    1.9622   30.7218 H       1  UNL1        0.0000
     44 H          13.3333    2.0813   32.0785 H       1  UNL1        0.0000
@<TRIPOS>BOND
     1    21    15    1
     2    22    15    1
     3    42    16    1
     4    43    16    1
     5    15    23    1
     6    15    14    1
     7    16    14    1
     8    16    44    1
     9    39    12    1
    10    41    12    1
    11    14     4    1
    12    14    17    1
    13    12    40    1
    14    12    10    1
    15    38    17    1
    16    32    13    1
    17    30    13    1
    18     4     1    1
    19    17    36    1
    20    17    37    1
    21    13    10    1
    22    13    31    1
    23    10    11    1
    24    10     5    1
    25    35     7    1
    26    29    11    1
    27    33     7    1
    28     1     5    1
    29     1     2    1
    30     1     3    1
    31     7    34    1
    32     7     6    1
    33    11    27    1
    34    11    28    1
    35     3     6    1
    36     6     8    1
    37     6     9    1
    38    19     8    1
    39    25     9    1
    40     8    20    1
    41     8    18    1
    42     9    26    1
    43     9    24    1
