@<TRIPOS>MOLECULE
1,2
 14 13 0 0 0
SMALL
GASTEIGER

@<TRIPOS>ATOM
      1 O           4.0258    9.0903    5.2338 O.3     1  UNL1       -0.2198
      2 O           5.8517    6.9203    6.0407 O.2     1  UNL1       -0.2932
      3 C           4.6408   11.2347    6.0160 C.3     1  UNL1       -0.0258
      4 H           3.7450   11.5102    5.4650 H       1  UNL1        0.0263
      5 H           5.4952   11.7654    5.6012 H       1  UNL1        0.0263
      6 H           4.5307   11.5283    7.0580 H       1  UNL1        0.0263
      7 C           4.8628    9.7351    5.9133 C.3     1  UNL1        0.1583
      8 C           5.9683    9.2277    6.6005 C.2     1  UNL1       -0.0044
      9 H           6.5642    9.9356    7.1572 H       1  UNL1        0.0637
     10 C           6.3783    7.8901    6.6357 C.2     1  UNL1        0.1520
     11 C           7.6070    7.5907    7.4772 C.3     1  UNL1       -0.0022
     12 H           7.8407    6.5305    7.4192 H       1  UNL1        0.0309
     13 H           7.4223    7.8628    8.5145 H       1  UNL1        0.0309
     14 H           8.4566    8.1690    7.1196 H       1  UNL1        0.0309
@<TRIPOS>BOND
     1     1     7    1
     2     4     3    1
     3     5     3    1
     4     7     3    1
     5     7     8    1
     6     3     6    1
     7     2    10    1
     8     8    10    2
     9     8     9    1
    10    10    11    1
    11    14    11    1
    12    12    11    1
    13    11    13    1
