@<TRIPOS>MOLECULE
1,14
 14 13 0 0 0
SMALL
GASTEIGER

@<TRIPOS>ATOM
      1 O           1.9030    3.1528   11.4336 O.3     1  UNL1       -0.2198
      2 C           2.9260    2.7405   12.0776 C.3     1  UNL1        0.1583
      3 C           3.1153    1.2551   12.2259 C.3     1  UNL1       -0.0258
      4 H           3.5105    1.0105   13.2074 H       1  UNL1        0.0263
      5 H           3.8335    0.9109   11.4826 H       1  UNL1        0.0263
      6 H           2.1736    0.7382   12.0592 H       1  UNL1        0.0263
      7 C           3.9006    3.5966   12.5883 C.2     1  UNL1       -0.0044
      8 H           4.7538    3.1748   13.0929 H       1  UNL1        0.0637
      9 C           3.8530    4.9782   12.3786 C.2     1  UNL1        0.1520
     10 C           5.0352    5.8091   12.7885 C.3     1  UNL1       -0.0022
     11 H           5.9128    5.5047   12.2212 H       1  UNL1        0.0309
     12 H           5.2559    5.6604   13.8428 H       1  UNL1        0.0309
     13 H           4.8345    6.8595   12.5986 H       1  UNL1        0.0309
     14 O           2.8703    5.5634   11.8144 O.2     1  UNL1       -0.2932
@<TRIPOS>BOND
     1     1     2    1
     2     5     3    1
     3    14     9    1
     4     6     3    1
     5     2     3    1
     6     2     7    1
     7    11    10    1
     8     3     4    1
     9     9     7    2
    10     9    10    1
    11     7     8    1
    12    13    10    1
    13    10    12    1
