@<TRIPOS>MOLECULE
1,14
 14 13 0 0 0
SMALL
GASTEIGER

@<TRIPOS>ATOM
      1 O          -0.5699    3.7176   11.5027 O.2     1  UNL1       -0.2932
      2 C          -0.9407    2.7381   12.2248 C.2     1  UNL1        0.1520
      3 C          -1.9951    1.8175   11.6726 C.3     1  UNL1       -0.0022
      4 H          -2.7738    1.6393   12.4095 H       1  UNL1        0.0309
      5 H          -1.5462    0.8561   11.4279 H       1  UNL1        0.0309
      6 H          -2.4304    2.2426   10.7725 H       1  UNL1        0.0309
      7 C          -0.4380    2.4536   13.5007 C.2     1  UNL1       -0.0044
      8 H          -0.8371    1.5873   14.0048 H       1  UNL1        0.0637
      9 C           0.5520    3.1751   14.1645 C.3     1  UNL1        0.1583
     10 C           0.9998    2.6861   15.5154 C.3     1  UNL1       -0.0258
     11 H           0.1436    2.5001   16.1591 H       1  UNL1        0.0263
     12 H           1.6520    3.4225   15.9770 H       1  UNL1        0.0263
     13 H           1.5402    1.7473   15.4053 H       1  UNL1        0.0263
     14 O           1.1116    4.2330   13.7111 O.3     1  UNL1       -0.2198
@<TRIPOS>BOND
     1     6     3    1
     2     5     3    1
     3     1     2    1
     4     3     2    1
     5     3     4    1
     6     2     7    2
     7     7     8    1
     8     7     9    1
     9    14     9    1
    10     9    10    1
    11    13    10    1
    12    10    12    1
    13    10    11    1
