@<TRIPOS>MOLECULE
1,2
 37 38 0 0 0
SMALL
GASTEIGER

@<TRIPOS>ATOM
      1 O          -1.9647   -4.4747    2.9127 O.3     1  UNL1       -0.1808
      2 O          -2.1887   -3.0053    5.0257 O.2     1  UNL1       -0.2470
      3 N          -0.4517   -2.8248    3.5012 N.pl3   1  UNL1       -0.2024
      4 N           0.1544   -4.6545    2.2116 N.3     1  UNL1       -0.2577
      5 N          -0.7996   -1.1629    5.0264 N.2     1  UNL1       -0.1955
      6 C           0.4089   -1.9077    2.8355 C.ar    1  UNL1        0.0423
      7 C           1.4589   -1.2907    3.5039 C.ar    1  UNL1       -0.0401
      8 H           1.6427   -1.5212    4.5399 H       1  UNL1        0.0636
      9 C           2.2447   -0.3679    2.8367 C.ar    1  UNL1       -0.0600
     10 H           3.0556    0.1171    3.3585 H       1  UNL1        0.0618
     11 C           1.9969   -0.0654    1.5076 C.ar    1  UNL1       -0.0616
     12 H           2.6149    0.6542    0.9923 H       1  UNL1        0.0618
     13 C           0.9486   -0.6810    0.8445 C.ar    1  UNL1       -0.0600
     14 H           0.7426   -0.4408   -0.1876 H       1  UNL1        0.0618
     15 C           0.1487   -1.5964    1.5061 C.ar    1  UNL1       -0.0401
     16 H          -0.6953   -2.0546    1.0107 H       1  UNL1        0.0636
     17 C          -0.8077   -3.9883    2.8806 C.3     1  UNL1        0.2994
     18 C           1.5726   -4.4561    2.3978 C.3     1  UNL1       -0.0087
     19 H           1.7709   -3.9955    3.3621 H       1  UNL1        0.0392
     20 H           1.9978   -3.8289    1.6099 H       1  UNL1        0.0392
     21 H           2.0590   -5.4319    2.3727 H       1  UNL1        0.0392
     22 C          -0.2146   -5.7651    1.3598 C.3     1  UNL1       -0.0087
     23 H          -1.2660   -5.6793    1.0941 H       1  UNL1        0.0392
     24 H          -0.0522   -6.7167    1.8710 H       1  UNL1        0.0392
     25 H           0.3926   -5.7309    0.4555 H       1  UNL1        0.0392
     26 C          -1.2273   -2.2969    4.6079 C.2     1  UNL1        0.3444
     27 C          -1.2833   -0.5729    6.1786 C.ar    1  UNL1        0.0691
     28 C          -1.6173   -1.2945    7.3291 C.ar    1  UNL1       -0.0361
     29 H          -1.5536   -2.3726    7.3106 H       1  UNL1        0.0639
     30 C          -2.0223   -0.6351    8.4735 C.ar    1  UNL1       -0.0598
     31 H          -2.2784   -1.2054    9.3556 H       1  UNL1        0.0618
     32 C          -2.1066    0.7474    8.4963 C.ar    1  UNL1       -0.0616
     33 H          -2.4288    1.2588    9.3918 H       1  UNL1        0.0618
     34 C          -1.7634    1.4707    7.3646 C.ar    1  UNL1       -0.0598
     35 H          -1.8171    2.5506    7.3791 H       1  UNL1        0.0618
     36 C          -1.3450    0.8226    6.2200 C.ar    1  UNL1       -0.0361
     37 H          -1.0614    1.3775    5.3392 H       1  UNL1        0.0639
@<TRIPOS>BOND
     1    14    13    1
     2    25    22    1
     3    13    15   ar
     4    13    11   ar
     5    12    11    1
     6    16    15    1
     7    23    22    1
     8    22    24    1
     9    22     4    1
    10    15     6   ar
    11    11     9   ar
    12    20    18    1
    13     4    18    1
    14     4    17    1
    15    21    18    1
    16    18    19    1
    17     6     3    1
    18     6     7   ar
    19     9    10    1
    20     9     7   ar
    21    17     1    1
    22    17     3    1
    23     3    26    1
    24     7     8    1
    25    26     2    1
    26    26     5    2
    27     5    27    1
    28    37    36    1
    29    27    36   ar
    30    27    28   ar
    31    36    34   ar
    32    29    28    1
    33    28    30   ar
    34    34    35    1
    35    34    32   ar
    36    30    32   ar
    37    30    31    1
    38    32    33    1
