@<TRIPOS>MOLECULE
2,3
 71 72 0 0 0
SMALL
GASTEIGER

@<TRIPOS>ATOM
      1 S          13.0980   10.6313    2.6638 S.3     1  UNL1       -0.0818
      2 O          10.4995    9.3595    3.1826 O.3     1  UNL1       -0.2867
      3 O          10.7333   11.8149    3.9774 O.3     1  UNL1       -0.2867
      4 C          12.7664    7.8865    7.4453 C.3     1  UNL1       -0.0600
      5 H          13.3517    8.0142    6.5397 H       1  UNL1        0.0235
      6 H          11.9634    8.6189    7.4367 H       1  UNL1        0.0235
      7 H          12.3215    6.8935    7.4231 H       1  UNL1        0.0235
      8 C          14.7468    6.9870    8.6770 C.3     1  UNL1       -0.0600
      9 H          14.3150    5.9877    8.6865 H       1  UNL1        0.0235
     10 H          15.3833    7.0856    9.5541 H       1  UNL1        0.0235
     11 H          15.3663    7.0748    7.7917 H       1  UNL1        0.0235
     12 C          12.7514    7.7444    9.9247 C.3     1  UNL1       -0.0600
     13 H          11.8896    8.4078    9.9485 H       1  UNL1        0.0235
     14 H          13.3173    7.8818   10.8440 H       1  UNL1        0.0235
     15 H          12.3880    6.7196    9.8991 H       1  UNL1        0.0235
     16 C          15.2667   11.6133    8.2793 C.3     1  UNL1       -0.0558
     17 H          16.0978   11.4299    8.9570 H       1  UNL1        0.0238
     18 H          14.4879   12.1385    8.8256 H       1  UNL1        0.0238
     19 H          15.6128   12.2609    7.4765 H       1  UNL1        0.0238
     20 C          15.9369    9.5807    7.0476 C.3     1  UNL1       -0.0558
     21 H          15.6301    8.7123    6.4736 H       1  UNL1        0.0238
     22 H          16.6339    9.2585    7.8177 H       1  UNL1        0.0238
     23 H          16.4639   10.2639    6.3847 H       1  UNL1        0.0238
     24 C          15.9212    6.0579    4.5387 C.3     1  UNL1       -0.0600
     25 H          15.4485    6.9674    4.1775 H       1  UNL1        0.0235
     26 H          16.8761    5.9196    4.0379 H       1  UNL1        0.0235
     27 H          16.1177    6.1760    5.6033 H       1  UNL1        0.0235
     28 C          13.6941    5.0981    5.0690 C.3     1  UNL1       -0.0600
     29 H          13.0043    4.2700    4.9219 H       1  UNL1        0.0235
     30 H          13.2130    6.0113    4.7334 H       1  UNL1        0.0235
     31 H          13.8895    5.1892    6.1352 H       1  UNL1        0.0235
     32 C          15.6794    3.6216    4.9534 C.3     1  UNL1       -0.0600
     33 H          15.8190    3.7695    6.0221 H       1  UNL1        0.0235
     34 H          16.6545    3.4395    4.5064 H       1  UNL1        0.0235
     35 H          15.0659    2.7347    4.8102 H       1  UNL1        0.0235
     36 C          15.8046    6.2430    1.2994 C.3     1  UNL1       -0.0558
     37 H          15.6151    6.8996    0.4530 H       1  UNL1        0.0238
     38 H          16.4987    5.4707    0.9738 H       1  UNL1        0.0238
     39 H          16.2858    6.8166    2.0822 H       1  UNL1        0.0238
     40 C          13.9324    4.8636    0.5214 C.3     1  UNL1       -0.0558
     41 H          13.0148    4.3289    0.7483 H       1  UNL1        0.0238
     42 H          14.6591    4.1467    0.1446 H       1  UNL1        0.0238
     43 H          13.7170    5.5837   -0.2648 H       1  UNL1        0.0238
     44 C          12.8537   10.8613    4.4291 C.ar    1  UNL1        0.0597
     45 C          11.6472   11.4409    4.8502 C.ar    1  UNL1        0.1926
     46 C          11.4907   11.6312    6.2293 C.ar    1  UNL1       -0.0135
     47 H          10.5746   12.0827    6.5819 H       1  UNL1        0.0656
     48 C          12.4770   11.2462    7.1124 C.ar    1  UNL1       -0.0544
     49 H          12.3051   11.4192    8.1640 H       1  UNL1        0.0622
     50 C          13.6660   10.6497    6.6905 C.ar    1  UNL1       -0.0404
     51 C          13.8384   10.4822    5.3225 C.ar    1  UNL1       -0.0406
     52 H          14.7367   10.0485    4.9151 H       1  UNL1        0.0633
     53 C          14.7436   10.2839    7.6981 C.3     1  UNL1       -0.0093
     54 C          14.1867    9.4661    8.8872 C.3     1  UNL1       -0.0389
     55 H          14.9855    9.4041    9.6315 H       1  UNL1        0.0279
     56 H          13.3907   10.0601    9.3380 H       1  UNL1        0.0279
     57 C          13.6297    8.0358    8.6980 C.3     1  UNL1       -0.0369
     58 C          12.7417    8.8751    2.5937 C.ar    1  UNL1        0.0597
     59 C          11.4319    8.4713    2.8889 C.ar    1  UNL1        0.1926
     60 C          11.1728    7.0974    2.8525 C.ar    1  UNL1       -0.0135
     61 H          10.1725    6.7583    3.0817 H       1  UNL1        0.0656
     62 C          12.1638    6.2030    2.5051 C.ar    1  UNL1       -0.0544
     63 H          11.9136    5.1537    2.4831 H       1  UNL1        0.0622
     64 C          13.4608    6.6112    2.1938 C.ar    1  UNL1       -0.0404
     65 C          13.7302    7.9736    2.2506 C.ar    1  UNL1       -0.0406
     66 H          14.7044    8.3697    2.0162 H       1  UNL1        0.0633
     67 C          14.4955    5.5900    1.7600 C.3     1  UNL1       -0.0093
     68 C          14.7688    4.5053    2.8344 C.3     1  UNL1       -0.0389
     69 H          13.9332    3.8019    2.8171 H       1  UNL1        0.0279
     70 H          15.6454    3.9547    2.4832 H       1  UNL1        0.0279
     71 C          15.0085    4.8518    4.3230 C.3     1  UNL1       -0.0369
@<TRIPOS>BOND
     1    43    40    1
     2    42    40    1
     3    37    36    1
     4    40    41    1
     5    40    67    1
     6    38    36    1
     7    36    67    1
     8    36    39    1
     9    67    64    1
    10    67    68    1
    11    66    65    1
    12    64    65   ar
    13    64    62   ar
    14    65    58   ar
    15    63    62    1
    16    70    68    1
    17    62    60   ar
    18    58     1    1
    19    58    59   ar
    20     1    44    1
    21    69    68    1
    22    68    71    1
    23    60    59   ar
    24    60    61    1
    25    59     2    1
    26     3    45    1
    27    26    24    1
    28    25    24    1
    29    71    24    1
    30    71    32    1
    31    71    28    1
    32    44    45   ar
    33    44    51   ar
    34    34    32    1
    35    24    27    1
    36    30    28    1
    37    35    32    1
    38    45    46   ar
    39    52    51    1
    40    29    28    1
    41    32    33    1
    42    28    31    1
    43    51    50   ar
    44    46    47    1
    45    46    48   ar
    46    23    20    1
    47    21    20    1
    48     5     4    1
    49    50    48   ar
    50    50    53    1
    51    20    53    1
    52    20    22    1
    53    48    49    1
    54     7     4    1
    55     6     4    1
    56     4    57    1
    57    19    16    1
    58    53    16    1
    59    53    54    1
    60    11     8    1
    61    16    18    1
    62    16    17    1
    63     8     9    1
    64     8    57    1
    65     8    10    1
    66    57    54    1
    67    57    12    1
    68    54    56    1
    69    54    55    1
    70    15    12    1
    71    12    13    1
    72    12    14    1
