@<TRIPOS>MOLECULE
2,4
 8 7 0 0 0
SMALL
GASTEIGER

@<TRIPOS>ATOM
      1 S           2.9642   11.0688    5.7885 S.3     1  UNL1        0.1076
      2 O           1.8130   10.2098    5.5642 O.3     1  UNL1       -0.0619
      3 F           1.1242   12.3368    7.2791 F       1  UNL1       -0.1499
      4 O           3.9956   10.2229    6.3747 O.3     1  UNL1       -0.0619
      5 O           3.3533   12.0089    4.8059 O.3     1  UNL1       -0.0619
      6 F           2.7667   11.5087    8.4031 F       1  UNL1       -0.1499
      7 F           3.0445   13.3186    7.2693 F       1  UNL1       -0.1499
      8 C           2.4442   12.1326    7.2644 C.3     1  UNL1        0.5278
@<TRIPOS>BOND
     1     5     1    1
     2     2     1    1
     3     1     4    1
     4     1     8    1
     5     8     7    1
     6     8     3    1
     7     8     6    1
