@<TRIPOS>MOLECULE
2,3
 8 7 0 0 0
SMALL
GASTEIGER

@<TRIPOS>ATOM
      1 S           2.8622   -0.8053    1.5311 S.3     1  UNL1        0.1076
      2 O           3.9968   -1.4824    2.1755 O.3     1  UNL1       -0.0619
      3 O           3.2229    0.5756    1.2672 O.3     1  UNL1       -0.0619
      4 O           1.6038   -1.0531    2.1476 O.3     1  UNL1       -0.0619
      5 F           3.3308   -0.8631   -1.1032 F       1  UNL1       -0.1499
      6 F           3.0656   -2.8272   -0.2376 F       1  UNL1       -0.1499
      7 F           1.3683   -1.5241   -0.5194 F       1  UNL1       -0.1499
      8 C           2.6519   -1.5607   -0.1873 C.3     1  UNL1        0.5278
@<TRIPOS>BOND
     1     5     8    1
     2     7     8    1
     3     6     8    1
     4     8     1    1
     5     3     1    1
     6     1     4    1
     7     1     2    1
