@<TRIPOS>MOLECULE
3,4
 82 83 0 0 0
SMALL
GASTEIGER

@<TRIPOS>ATOM
      1 SI         -3.6770    9.3768    7.3052 Si      1  UNL1        0.0000
      2 SI          1.3959    7.5942   11.5261 Si      1  UNL1        0.0000
      3 O          -0.1964    4.9434    8.9994 O.3     1  UNL1        0.0000
      4 O          -0.7965    6.4721    6.3251 O.3     1  UNL1        0.0000
      5 C          -1.3808    5.5019    9.2791 C.ar    1  UNL1        0.0000
      6 C          -2.4208    4.7930    9.9225 C.ar    1  UNL1        0.0000
      7 C          -3.5692    5.5050   10.2277 C.ar    1  UNL1        0.0000
      8 C          -3.7370    6.8521    9.9435 C.ar    1  UNL1        0.0000
      9 C          -2.7088    7.5620    9.3253 C.ar    1  UNL1        0.0000
     10 C          -1.5333    6.8771    8.9880 C.ar    1  UNL1        0.0000
     11 C          -2.3223    3.2966   10.2076 C.3     1  UNL1        0.0000
     12 C          -3.4866    2.7816   11.0636 C.3     1  UNL1        0.0000
     13 C          -1.0248    2.9520   10.9507 C.3     1  UNL1        0.0000
     14 C          -2.3628    2.5614    8.8602 C.3     1  UNL1        0.0000
     15 C          -5.0281    7.5199   10.3166 C.3     1  UNL1        0.0000
     16 C          -2.8781    9.0166    9.0218 C.3     1  UNL1        0.0000
     17 C          -0.1988    7.4940    6.9490 C.ar    1  UNL1        0.0000
     18 C           0.5901    8.4298    6.2421 C.ar    1  UNL1        0.0000
     19 C           1.2652    9.3692    7.0050 C.ar    1  UNL1        0.0000
     20 C           1.1783    9.4356    8.3908 C.ar    1  UNL1        0.0000
     21 C           0.2964    8.5974    9.0715 C.ar    1  UNL1        0.0000
     22 C          -0.4176    7.6358    8.3403 C.ar    1  UNL1        0.0000
     23 C          -5.3899   10.2050    7.4998 C.3     1  UNL1        0.0000
     24 C          -2.5287   10.6397    6.4495 C.3     1  UNL1        0.0000
     25 C          -3.8709    7.7660    6.3122 C.3     1  UNL1        0.0000
     26 C           0.1381    8.6936   10.5526 C.3     1  UNL1        0.0000
     27 C           2.6573    6.7906   10.3536 C.3     1  UNL1        0.0000
     28 C           2.2811    8.6850   12.8224 C.3     1  UNL1        0.0000
     29 C           0.3923    6.2382   12.4088 C.3     1  UNL1        0.0000
     30 C           1.9981   10.4544    9.1268 C.3     1  UNL1        0.0000
     31 C           0.6838    8.4098    4.7151 C.3     1  UNL1        0.0000
     32 C          -0.7137    8.3127    4.0848 C.3     1  UNL1        0.0000
     33 C           1.3433    9.6821    4.1669 C.3     1  UNL1        0.0000
     34 C           1.5200    7.2074    4.2547 C.3     1  UNL1        0.0000
     35 H          -4.3898    5.0008   10.7105 H       1  UNL1        0.0000
     36 H          -4.4355    2.8606   10.5382 H       1  UNL1        0.0000
     37 H          -3.5508    3.3222   12.0053 H       1  UNL1        0.0000
     38 H          -3.3215    1.7299   11.2897 H       1  UNL1        0.0000
     39 H          -0.9637    1.8763   11.1062 H       1  UNL1        0.0000
     40 H          -1.0079    3.4401   11.9233 H       1  UNL1        0.0000
     41 H          -0.1532    3.2656   10.3816 H       1  UNL1        0.0000
     42 H          -3.2598    2.8361    8.3063 H       1  UNL1        0.0000
     43 H          -2.3803    1.4842    9.0148 H       1  UNL1        0.0000
     44 H          -1.4847    2.8104    8.2609 H       1  UNL1        0.0000
     45 H          -5.7367    6.7888   10.6988 H       1  UNL1        0.0000
     46 H          -5.4695    8.0167    9.4553 H       1  UNL1        0.0000
     47 H          -4.8679    8.2714   11.0907 H       1  UNL1        0.0000
     48 H          -1.9079    9.5086    9.0242 H       1  UNL1        0.0000
     49 H          -3.4718    9.4805    9.8079 H       1  UNL1        0.0000
     50 H           1.9048   10.0874    6.5181 H       1  UNL1        0.0000
     51 H          -5.6977   10.6626    6.5648 H       1  UNL1        0.0000
     52 H          -5.3704   10.9876    8.2521 H       1  UNL1        0.0000
     53 H          -6.1646    9.4984    7.7809 H       1  UNL1        0.0000
     54 H          -2.8344   10.8331    5.4255 H       1  UNL1        0.0000
     55 H          -1.4995   10.2921    6.4368 H       1  UNL1        0.0000
     56 H          -2.5440   11.5906    6.9751 H       1  UNL1        0.0000
     57 H          -4.2209    7.9541    5.3011 H       1  UNL1        0.0000
     58 H          -4.5781    7.0925    6.7891 H       1  UNL1        0.0000
     59 H          -2.9226    7.2410    6.2433 H       1  UNL1        0.0000
     60 H          -0.8574    8.3562   10.8358 H       1  UNL1        0.0000
     61 H           0.2314    9.7320   10.8667 H       1  UNL1        0.0000
     62 H           3.3751    6.1784   10.8915 H       1  UNL1        0.0000
     63 H           3.2147    7.5210    9.7743 H       1  UNL1        0.0000
     64 H           2.1364    6.1417    9.6536 H       1  UNL1        0.0000
     65 H           2.9270    8.0814   13.4516 H       1  UNL1        0.0000
     66 H           1.5680    9.1834   13.4717 H       1  UNL1        0.0000
     67 H           2.8988    9.4521   12.3657 H       1  UNL1        0.0000
     68 H           1.0354    5.5673   12.9701 H       1  UNL1        0.0000
     69 H          -0.1512    5.6442   11.6810 H       1  UNL1        0.0000
     70 H          -0.3331    6.6565   13.1012 H       1  UNL1        0.0000
     71 H           2.6985   10.9403    8.4516 H       1  UNL1        0.0000
     72 H           2.5572    9.9872    9.9351 H       1  UNL1        0.0000
     73 H           1.3597   11.2235    9.5635 H       1  UNL1        0.0000
     74 H          -1.3288    9.1568    4.3839 H       1  UNL1        0.0000
     75 H          -1.2154    7.3956    4.3815 H       1  UNL1        0.0000
     76 H          -0.6263    8.3152    2.9996 H       1  UNL1        0.0000
     77 H           0.8217   10.5723    4.5113 H       1  UNL1        0.0000
     78 H           1.3023    9.6661    3.0796 H       1  UNL1        0.0000
     79 H           2.3897    9.7463    4.4560 H       1  UNL1        0.0000
     80 H           1.0610    6.2638    4.5728 H       1  UNL1        0.0000
     81 H           2.5226    7.2630    4.6743 H       1  UNL1        0.0000
     82 H           1.6003    7.2053    3.1688 H       1  UNL1        0.0000
@<TRIPOS>BOND
     1    76    32    1
     2    78    33    1
     3    82    34    1
     4    32    75    1
     5    32    74    1
     6    32    31    1
     7    33    79    1
     8    33    77    1
     9    33    31    1
    10    34    80    1
    11    34    81    1
    12    34    31    1
    13    31    18    1
    14    57    25    1
    15    54    24    1
    16    18    17   ar
    17    18    19   ar
    18    59    25    1
    19    25    58    1
    20    25     1    1
    21     4    17    1
    22    55    24    1
    23    24    56    1
    24    24     1    1
    25    50    19    1
    26    51    23    1
    27    17    22   ar
    28    19    20   ar
    29     1    23    1
    30     1    16    1
    31    23    53    1
    32    23    52    1
    33    44    14    1
    34    42    14    1
    35    22    10    1
    36    22    21   ar
    37    20    21   ar
    38    20    30    1
    39    71    30    1
    40    14    43    1
    41    14    11    1
    42    10     5   ar
    43    10     9   ar
    44     3     5    1
    45    16    48    1
    46    16     9    1
    47    16    49    1
    48    21    26    1
    49    30    73    1
    50    30    72    1
    51     5     6   ar
    52     9     8   ar
    53    46    15    1
    54    64    27    1
    55    63    27    1
    56     6    11    1
    57     6     7   ar
    58     8     7   ar
    59     8    15    1
    60    11    13    1
    61    11    12    1
    62     7    35    1
    63    15    45    1
    64    15    47    1
    65    27    62    1
    66    27     2    1
    67    41    13    1
    68    36    12    1
    69    26    60    1
    70    26    61    1
    71    26     2    1
    72    13    39    1
    73    13    40    1
    74    12    38    1
    75    12    37    1
    76     2    29    1
    77     2    28    1
    78    69    29    1
    79    67    28    1
    80    29    68    1
    81    29    70    1
    82    28    65    1
    83    28    66    1
