@<TRIPOS>MOLECULE
2,3
 65 67 0 0 0
SMALL
GASTEIGER

@<TRIPOS>ATOM
      1 SI         21.9684   10.4286   12.6229 Si      1  UNL1        0.0000
      2 O          16.5618    9.6485   12.4345 O.3     1  UNL1        0.0000
      3 O          17.7761    7.1422   11.4413 O.3     1  UNL1        0.0000
      4 C          18.6092    7.3139   12.4771 C.ar    1  UNL1        0.0000
      5 C          19.0248    6.2475   13.3021 C.ar    1  UNL1        0.0000
      6 C          19.8507    6.5629   14.3696 C.ar    1  UNL1        0.0000
      7 C          20.3140    7.8466   14.6239 C.ar    1  UNL1        0.0000
      8 C          19.9748    8.8805   13.7543 C.ar    1  UNL1        0.0000
      9 C          19.1228    8.6119   12.6788 C.ar    1  UNL1        0.0000
     10 C          18.6085    4.8116   12.9988 C.3     1  UNL1        0.0000
     11 C          17.0894    4.6496   13.1540 C.3     1  UNL1        0.0000
     12 C          19.0242    4.4661   11.5605 C.3     1  UNL1        0.0000
     13 C          19.2799    3.7972   13.9325 C.3     1  UNL1        0.0000
     14 C          21.1835    8.0864   15.8249 C.3     1  UNL1        0.0000
     15 C          20.5467   10.2529   13.9008 C.3     1  UNL1        0.0000
     16 C          17.4957   10.2465   11.6852 C.ar    1  UNL1        0.0000
     17 C          17.2367   11.4323   10.9659 C.ar    1  UNL1        0.0000
     18 C          18.2561   11.9098   10.1568 C.ar    1  UNL1        0.0000
     19 C          19.5141   11.3261   10.0885 C.ar    1  UNL1        0.0000
     20 C          19.8087   10.2430   10.9135 C.ar    1  UNL1        0.0000
     21 C          18.7974    9.7029   11.7137 C.ar    1  UNL1        0.0000
     22 C          15.9269   12.1938   11.1537 C.3     1  UNL1        0.0000
     23 C          15.7647   12.5080   12.6494 C.3     1  UNL1        0.0000
     24 C          14.7299   11.3651   10.6713 C.3     1  UNL1        0.0000
     25 C          15.9111   13.5238   10.3911 C.3     1  UNL1        0.0000
     26 C          20.5405   11.9010    9.1548 C.3     1  UNL1        0.0000
     27 C          21.1927    9.6926   11.0288 C.3     1  UNL1        0.0000
     28 C          23.5124    9.4184   13.1011 C.3     1  UNL1        0.0000
     29 C          22.4160   12.2730   12.4418 C.3     1  UNL1        0.0000
     30 H          20.1621    5.7833   15.0452 H       1  UNL1        0.0000
     31 H          16.8165    3.6093   12.9846 H       1  UNL1        0.0000
     32 H          16.5410    5.2664   12.4325 H       1  UNL1        0.0000
     33 H          16.7736    4.9245   14.1602 H       1  UNL1        0.0000
     34 H          18.7141    3.4522   11.3152 H       1  UNL1        0.0000
     35 H          20.1061    4.5321   11.4569 H       1  UNL1        0.0000
     36 H          18.5669    5.1481   10.8471 H       1  UNL1        0.0000
     37 H          18.9909    2.7919   13.6325 H       1  UNL1        0.0000
     38 H          18.9654    3.9399   14.9637 H       1  UNL1        0.0000
     39 H          20.3638    3.8659   13.8746 H       1  UNL1        0.0000
     40 H          21.3571    7.1544   16.3572 H       1  UNL1        0.0000
     41 H          20.7058    8.7846   16.5126 H       1  UNL1        0.0000
     42 H          22.1467    8.5028   15.5355 H       1  UNL1        0.0000
     43 H          20.8778   10.4335   14.9194 H       1  UNL1        0.0000
     44 H          19.7831   10.9958   13.6666 H       1  UNL1        0.0000
     45 H          18.0847   12.7845    9.5508 H       1  UNL1        0.0000
     46 H          16.5994   13.1129   13.0001 H       1  UNL1        0.0000
     47 H          15.7289   11.5920   13.2351 H       1  UNL1        0.0000
     48 H          14.8418   13.0591   12.8188 H       1  UNL1        0.0000
     49 H          14.8623   11.0921    9.6259 H       1  UNL1        0.0000
     50 H          13.8153   11.9490   10.7626 H       1  UNL1        0.0000
     51 H          14.6163   10.4503   11.2620 H       1  UNL1        0.0000
     52 H          15.9613   13.3633    9.3165 H       1  UNL1        0.0000
     53 H          16.7354   14.1641   10.6968 H       1  UNL1        0.0000
     54 H          14.9819   14.0474   10.6073 H       1  UNL1        0.0000
     55 H          20.1241   12.7434    8.6076 H       1  UNL1        0.0000
     56 H          20.8627   11.1525    8.4307 H       1  UNL1        0.0000
     57 H          21.4187   12.2437    9.6990 H       1  UNL1        0.0000
     58 H          21.7786    9.9113   10.1407 H       1  UNL1        0.0000
     59 H          21.1493    8.6081   11.1356 H       1  UNL1        0.0000
     60 H          23.9563    9.7888   14.0198 H       1  UNL1        0.0000
     61 H          24.2714    9.4813   12.3275 H       1  UNL1        0.0000
     62 H          23.2749    8.3686   13.2431 H       1  UNL1        0.0000
     63 H          22.7838   12.6759   13.3804 H       1  UNL1        0.0000
     64 H          21.5558   12.8654   12.1455 H       1  UNL1        0.0000
     65 H          23.1952   12.4190   11.7004 H       1  UNL1        0.0000
@<TRIPOS>BOND
     1    56    26    1
     2    55    26    1
     3    26    57    1
     4    26    19    1
     5    52    25    1
     6    45    18    1
     7    49    24    1
     8    19    18   ar
     9    19    20   ar
    10    58    27    1
    11    18    17   ar
    12    25    54    1
    13    25    53    1
    14    25    22    1
    15    24    50    1
    16    24    22    1
    17    24    51    1
    18    36    12    1
    19    20    27    1
    20    20    21   ar
    21    17    22    1
    22    17    16   ar
    23    27    59    1
    24    27     1    1
    25    22    23    1
    26    34    12    1
    27     3     4    1
    28    35    12    1
    29    12    10    1
    30    16    21   ar
    31    16     2    1
    32    65    29    1
    33    21     9    1
    34    64    29    1
    35    61    28    1
    36    32    11    1
    37    29     1    1
    38    29    63    1
    39     4     9   ar
    40     4     5   ar
    41     1    28    1
    42     1    15    1
    43    23    48    1
    44    23    46    1
    45    23    47    1
    46     9     8   ar
    47    31    11    1
    48    10    11    1
    49    10     5    1
    50    10    13    1
    51    28    62    1
    52    28    60    1
    53    11    33    1
    54     5     6   ar
    55    37    13    1
    56    44    15    1
    57     8    15    1
    58     8     7   ar
    59    39    13    1
    60    15    43    1
    61    13    38    1
    62     6     7   ar
    63     6    30    1
    64     7    14    1
    65    42    14    1
    66    14    40    1
    67    14    41    1
