@<TRIPOS>MOLECULE
1,5
 21 20 0 0 0
SMALL
GASTEIGER

@<TRIPOS>ATOM
      1 O           4.4537    2.7583   10.1124 O.3     1  UNL1        0.0000
      2 SI          4.1985    4.2714   10.4888 Si      1  UNL1        0.0000
      3 O           2.9334    4.5193   11.4943 O.3     1  UNL1        0.0000
      4 SI          2.2874    3.3399   12.4379 Si      1  UNL1        0.0000
      5 O           2.6970    1.8973   11.9654 O.3     1  UNL1        0.0000
      6 C           5.7237    4.9516   11.4413 C.3     1  UNL1        0.0000
      7 H           5.4966    5.9460   11.8109 H       1  UNL1        0.0000
      8 H           6.5988    5.0345   10.8034 H       1  UNL1        0.0000
      9 H           5.9963    4.3447   12.3038 H       1  UNL1        0.0000
     10 C           3.9148    5.3482    8.9535 C.3     1  UNL1        0.0000
     11 H           3.6188    6.3494    9.2438 H       1  UNL1        0.0000
     12 H           3.1442    4.9424    8.3076 H       1  UNL1        0.0000
     13 H           4.8294    5.4261    8.3750 H       1  UNL1        0.0000
     14 C           2.9577    3.6209   14.2124 C.3     1  UNL1        0.0000
     15 H           2.5294    4.5226   14.6360 H       1  UNL1        0.0000
     16 H           4.0393    3.7324   14.2366 H       1  UNL1        0.0000
     17 H           2.6894    2.7934   14.8643 H       1  UNL1        0.0000
     18 C           0.4076    3.6000   12.4425 C.3     1  UNL1        0.0000
     19 H           0.1650    4.6340   12.6592 H       1  UNL1        0.0000
     20 H          -0.0502    2.9823   13.2081 H       1  UNL1        0.0000
     21 H          -0.0414    3.3398   11.4904 H       1  UNL1        0.0000
@<TRIPOS>BOND
     1    12    10    1
     2    13    10    1
     3    10    11    1
     4    10     2    1
     5     1     2    1
     6     2     6    1
     7     2     3    1
     8     8     6    1
     9     6     7    1
    10     6     9    1
    11    21    18    1
    12     3     4    1
    13     5     4    1
    14     4    18    1
    15     4    14    1
    16    18    19    1
    17    18    20    1
    18    14    16    1
    19    14    15    1
    20    14    17    1
