@<TRIPOS>MOLECULE
1,5
 21 20 0 0 0
SMALL
GASTEIGER

@<TRIPOS>ATOM
      1 O           0.0814    5.7903    3.5839 O.3     1  UNL1        0.0000
      2 SI         -0.7738    5.2225    2.3734 Si      1  UNL1        0.0000
      3 O          -1.7954    4.0378    2.8941 O.3     1  UNL1        0.0000
      4 SI         -1.4533    2.8691    3.9810 Si      1  UNL1        0.0000
      5 O          -0.0912    3.1675    4.7377 O.3     1  UNL1        0.0000
      6 C          -1.8918    6.5815    1.6753 C.3     1  UNL1        0.0000
      7 H          -2.4655    6.1921    0.8433 H       1  UNL1        0.0000
      8 H          -1.2920    7.4074    1.3132 H       1  UNL1        0.0000
      9 H          -2.5892    6.9670    2.4106 H       1  UNL1        0.0000
     10 C           0.3609    4.4516    1.0388 C.3     1  UNL1        0.0000
     11 H          -0.1051    3.6018    0.5484 H       1  UNL1        0.0000
     12 H           1.2917    4.1140    1.4975 H       1  UNL1        0.0000
     13 H           0.6225    5.1744    0.2725 H       1  UNL1        0.0000
     14 C          -2.9036    2.8236    5.2203 C.3     1  UNL1        0.0000
     15 H          -3.6678    2.1422    4.8627 H       1  UNL1        0.0000
     16 H          -3.3657    3.7974    5.3480 H       1  UNL1        0.0000
     17 H          -2.5809    2.4733    6.1971 H       1  UNL1        0.0000
     18 C          -1.3690    1.2046    3.0571 C.3     1  UNL1        0.0000
     19 H          -2.2489    1.0832    2.4348 H       1  UNL1        0.0000
     20 H          -1.3481    0.3729    3.7566 H       1  UNL1        0.0000
     21 H          -0.4974    1.1248    2.4127 H       1  UNL1        0.0000
@<TRIPOS>BOND
     1    13    10    1
     2    11    10    1
     3     7     6    1
     4    10    12    1
     5    10     2    1
     6     8     6    1
     7     6     2    1
     8     6     9    1
     9     2     3    1
    10     2     1    1
    11    21    18    1
    12    19    18    1
    13     3     4    1
    14    18    20    1
    15    18     4    1
    16     4     5    1
    17     4    14    1
    18    15    14    1
    19    14    16    1
    20    14    17    1
