@<TRIPOS>MOLECULE
2,3
 48 50 0 0 0
SMALL
GASTEIGER

@<TRIPOS>ATOM
      1 SI         -3.2996    5.0165    8.5367 Si      1  UNL1        0.0000
      2 O           0.4603    3.9044    8.3436 O.3     1  UNL1        0.0000
      3 O          -1.5804    2.5388    9.1986 O.3     1  UNL1        0.0000
      4 O          -2.9931    2.5473   11.8529 O.3     1  UNL1        0.0000
      5 H          -2.2610    2.0882   11.4265 H       1  UNL1        0.0000
      6 C          -1.5719    5.1068    7.7465 C.3     1  UNL1        0.0000
      7 H          -1.4792    4.3910    6.9271 H       1  UNL1        0.0000
      8 H          -1.2830    6.0813    7.3589 H       1  UNL1        0.0000
      9 C          -0.6034    4.6573    8.8550 C.3     1  UNL1        0.0000
     10 H          -0.1621    5.5305    9.3583 H       1  UNL1        0.0000
     11 C          -1.3559    3.7644    9.8470 C.3     1  UNL1        0.0000
     12 H          -0.7116    3.5905   10.7303 H       1  UNL1        0.0000
     13 C          -2.7110    4.3629   10.2320 C.3     1  UNL1        0.0000
     14 H          -2.5226    5.1472   10.9671 H       1  UNL1        0.0000
     15 C          -3.6348    3.2990   10.8428 C.3     1  UNL1        0.0000
     16 H          -3.9234    2.6153   10.0297 H       1  UNL1        0.0000
     17 C          -4.9190    3.9207   11.4172 C.3     1  UNL1        0.0000
     18 H          -5.2722    4.6609   10.6901 H       1  UNL1        0.0000
     19 C          -4.6632    4.6089   12.7550 C.3     1  UNL1        0.0000
     20 H          -3.9441    5.4168   12.6517 H       1  UNL1        0.0000
     21 H          -4.2680    3.8872   13.4639 H       1  UNL1        0.0000
     22 H          -5.5896    5.0228   13.1469 H       1  UNL1        0.0000
     23 C          -5.9866    2.8409   11.5779 C.3     1  UNL1        0.0000
     24 H          -6.8948    3.2615   12.0037 H       1  UNL1        0.0000
     25 H          -5.6193    2.0599   12.2387 H       1  UNL1        0.0000
     26 H          -6.2282    2.3995   10.6132 H       1  UNL1        0.0000
     27 C          -4.1471    6.7111    8.6127 C.ar    1  UNL1        0.0000
     28 C          -4.2751    7.4537    9.7815 C.ar    1  UNL1        0.0000
     29 H          -3.8649    7.0680   10.7023 H       1  UNL1        0.0000
     30 C          -4.9239    8.6760    9.7881 C.ar    1  UNL1        0.0000
     31 H          -5.0132    9.2349   10.7088 H       1  UNL1        0.0000
     32 C          -5.4606    9.1822    8.6171 C.ar    1  UNL1        0.0000
     33 H          -5.9692   10.1355    8.6194 H       1  UNL1        0.0000
     34 C          -5.3427    8.4580    7.4422 C.ar    1  UNL1        0.0000
     35 H          -5.7607    8.8464    6.5244 H       1  UNL1        0.0000
     36 C          -4.6932    7.2378    7.4456 C.ar    1  UNL1        0.0000
     37 H          -4.6085    6.6726    6.5292 H       1  UNL1        0.0000
     38 C          -4.4906    3.8102    7.6832 C.ar    1  UNL1        0.0000
     39 C          -5.8647    4.0433    7.6911 C.ar    1  UNL1        0.0000
     40 H          -6.2447    4.9377    8.1631 H       1  UNL1        0.0000
     41 C          -6.7448    3.1543    7.1017 C.ar    1  UNL1        0.0000
     42 H          -7.8070    3.3524    7.1216 H       1  UNL1        0.0000
     43 C          -6.2644    2.0111    6.4854 C.ar    1  UNL1        0.0000
     44 H          -6.9495    1.3154    6.0218 H       1  UNL1        0.0000
     45 C          -4.9016    1.7649    6.4659 C.ar    1  UNL1        0.0000
     46 H          -4.5237    0.8760    5.9793 H       1  UNL1        0.0000
     47 C          -4.0236    2.6538    7.0608 C.ar    1  UNL1        0.0000
     48 H          -2.9623    2.4466    7.0516 H       1  UNL1        0.0000
@<TRIPOS>BOND
     1    46    45    1
     2    44    43    1
     3    45    43   ar
     4    45    47   ar
     5    43    41   ar
     6    35    34    1
     7    37    36    1
     8     7     6    1
     9    48    47    1
    10    47    38   ar
    11    41    42    1
    12    41    39   ar
    13     8     6    1
    14    34    36   ar
    15    34    32   ar
    16    36    27   ar
    17    38    39   ar
    18    38     1    1
    19    39    40    1
    20     6     1    1
    21     6     9    1
    22     2     9    1
    23     1    27    1
    24     1    13    1
    25    27    28   ar
    26    32    33    1
    27    32    30   ar
    28     9    10    1
    29     9    11    1
    30     3    11    1
    31    28    30   ar
    32    28    29    1
    33    30    31    1
    34    11    13    1
    35    11    12    1
    36    16    15    1
    37    13    15    1
    38    13    14    1
    39    26    23    1
    40    18    17    1
    41    15    17    1
    42    15     4    1
    43    17    23    1
    44    17    19    1
    45     5     4    1
    46    23    24    1
    47    23    25    1
    48    20    19    1
    49    19    22    1
    50    19    21    1
