@<TRIPOS>MOLECULE
2,3
 8 7 0 0 0
SMALL
GASTEIGER

@<TRIPOS>ATOM
      1 S           9.7103    8.6887   10.6267 S.3     1  UNL1        0.1076
      2 O           9.9557    9.3814   11.8844 O.3     1  UNL1       -0.0619
      3 O           8.5657    7.8059   10.6594 O.3     1  UNL1       -0.0619
      4 O          10.8728    8.2060    9.9495 O.3     1  UNL1       -0.0619
      5 C           9.1219   10.0951    9.5177 C.3     1  UNL1        0.5278
      6 F           8.9017    9.6777    8.2678 F       1  UNL1       -0.1499
      7 F           7.9708   10.6268    9.9654 F       1  UNL1       -0.1499
      8 F          10.0178   11.0871    9.4681 F       1  UNL1       -0.1499
@<TRIPOS>BOND
     1     6     5    1
     2     8     5    1
     3     5     7    1
     4     5     1    1
     5     4     1    1
     6     1     3    1
     7     1     2    1
