@<TRIPOS>MOLECULE
1,2
 32 31 0 0 0
SMALL
GASTEIGER

@<TRIPOS>ATOM
      1 O           2.0236   23.7604    3.5377 O.2     1  UNL1       -0.2923
      2 O           2.8385   21.3306    4.3871 O.3     1  UNL1       -0.2190
      3 C           2.6215   24.1625    4.5805 C.2     1  UNL1        0.1604
      4 C           3.0662   23.3150    5.6045 C.2     1  UNL1       -0.0028
      5 C           3.0771   21.9241    5.4862 C.3     1  UNL1        0.1666
      6 C           2.8800   25.6698    4.7306 C.3     1  UNL1        0.0244
      7 C           4.3762   25.9070    4.9727 C.3     1  UNL1       -0.0530
      8 C           2.0596   26.2092    5.9089 C.3     1  UNL1       -0.0530
      9 C           2.4641   26.3961    3.4509 C.3     1  UNL1       -0.0530
     10 C           3.4143   21.0177    6.6773 C.3     1  UNL1        0.0013
     11 C           4.5478   20.0702    6.2680 C.3     1  UNL1       -0.0569
     12 C           2.1406   20.1983    6.9402 C.3     1  UNL1       -0.0569
     13 C           3.8096   21.7677    7.9483 C.3     1  UNL1       -0.0569
     14 H           3.4293   23.7632    6.5113 H       1  UNL1        0.0638
     15 H           4.5764   26.9762    4.9936 H       1  UNL1        0.0239
     16 H           4.7048   25.4814    5.9164 H       1  UNL1        0.0239
     17 H           4.9619   25.4628    4.1715 H       1  UNL1        0.0239
     18 H           2.2230   27.2804    6.0084 H       1  UNL1        0.0239
     19 H           0.9993   26.0372    5.7415 H       1  UNL1        0.0239
     20 H           2.3413   25.7311    6.8431 H       1  UNL1        0.0239
     21 H           2.6456   27.4639    3.5531 H       1  UNL1        0.0239
     22 H           1.4094   26.2362    3.2491 H       1  UNL1        0.0239
     23 H           3.0314   26.0229    2.6025 H       1  UNL1        0.0239
     24 H           4.7559   19.3673    7.0718 H       1  UNL1        0.0236
     25 H           5.4553   20.6308    6.0536 H       1  UNL1        0.0236
     26 H           4.2635   19.5132    5.3800 H       1  UNL1        0.0236
     27 H           2.3320   19.4375    7.6944 H       1  UNL1        0.0236
     28 H           1.3410   20.8476    7.2911 H       1  UNL1        0.0236
     29 H           1.8111   19.7150    6.0211 H       1  UNL1        0.0236
     30 H           4.0064   21.0477    8.7403 H       1  UNL1        0.0236
     31 H           3.0110   22.4248    8.2837 H       1  UNL1        0.0236
     32 H           4.7135   22.3522    7.7943 H       1  UNL1        0.0236
@<TRIPOS>BOND
     1    23     9    1
     2    22     9    1
     3     9    21    1
     4     9     6    1
     5     1     3    1
     6    17     7    1
     7     2     5    1
     8     3     6    1
     9     3     4    2
    10     6     7    1
    11     6     8    1
    12     7    15    1
    13     7    16    1
    14    26    11    1
    15     5     4    1
    16     5    10    1
    17     4    14    1
    18    19     8    1
    19     8    18    1
    20     8    20    1
    21    29    12    1
    22    25    11    1
    23    11    10    1
    24    11    24    1
    25    10    12    1
    26    10    13    1
    27    12    28    1
    28    12    27    1
    29    32    13    1
    30    13    31    1
    31    13    30    1
