@<TRIPOS>MOLECULE
1,2
 32 31 0 0 0
SMALL
GASTEIGER

@<TRIPOS>ATOM
      1 O           0.6292   20.0399    3.6376 O.3     1  UNL1       -0.2190
      2 O           0.3169   22.2207    5.1287 O.2     1  UNL1       -0.2923
      3 C          -0.6364   19.9202    3.7434 C.3     1  UNL1        0.1666
      4 C          -1.3740   20.6450    4.6810 C.2     1  UNL1       -0.0028
      5 C          -0.8450   21.7590    5.3437 C.2     1  UNL1        0.1604
      6 C          -1.2769   18.9208    2.7818 C.3     1  UNL1        0.0013
      7 C          -0.9531   19.4702    1.3819 C.3     1  UNL1       -0.0569
      8 C          -0.5967   17.5593    2.9771 C.3     1  UNL1       -0.0569
      9 C          -2.7889   18.7778    2.9392 C.3     1  UNL1       -0.0569
     10 C          -1.7156   22.4661    6.3911 C.3     1  UNL1        0.0244
     11 C          -0.9870   23.7099    6.9032 C.3     1  UNL1       -0.0530
     12 C          -3.0476   22.8896    5.7610 C.3     1  UNL1       -0.0530
     13 C          -1.9667   21.5014    7.5576 C.3     1  UNL1       -0.0530
     14 H          -2.4061   20.3943    4.8425 H       1  UNL1        0.0638
     15 H          -1.2598   18.7588    0.6177 H       1  UNL1        0.0236
     16 H          -1.4739   20.4125    1.2278 H       1  UNL1        0.0236
     17 H           0.1179   19.6609    1.2916 H       1  UNL1        0.0236
     18 H          -0.9425   16.8565    2.2229 H       1  UNL1        0.0236
     19 H           0.4808   17.6692    2.8901 H       1  UNL1        0.0236
     20 H          -0.8284   17.1561    3.9611 H       1  UNL1        0.0236
     21 H          -3.1631   18.0873    2.1862 H       1  UNL1        0.0236
     22 H          -3.2822   19.7354    2.7966 H       1  UNL1        0.0236
     23 H          -3.0488   18.3808    3.9181 H       1  UNL1        0.0236
     24 H          -1.5656   24.1880    7.6904 H       1  UNL1        0.0239
     25 H          -0.8484   24.4166    6.0895 H       1  UNL1        0.0239
     26 H          -0.0075   23.4469    7.2955 H       1  UNL1        0.0239
     27 H          -3.5841   23.5450    6.4443 H       1  UNL1        0.0239
     28 H          -2.8669   23.4212    4.8307 H       1  UNL1        0.0239
     29 H          -3.6790   22.0312    5.5507 H       1  UNL1        0.0239
     30 H          -2.6031   21.9792    8.2996 H       1  UNL1        0.0239
     31 H          -2.4549   20.5932    7.2159 H       1  UNL1        0.0239
     32 H          -1.0291   21.2256    8.0347 H       1  UNL1        0.0239
@<TRIPOS>BOND
     1    15     7    1
     2    16     7    1
     3    17     7    1
     4     7     6    1
     5    21     9    1
     6    18     8    1
     7     6     9    1
     8     6     8    1
     9     6     3    1
    10    22     9    1
    11    19     8    1
    12     9    23    1
    13     8    20    1
    14     1     3    1
    15     3     4    1
    16     4    14    1
    17     4     5    2
    18    28    12    1
    19     2     5    1
    20     5    10    1
    21    29    12    1
    22    12    10    1
    23    12    27    1
    24    25    11    1
    25    10    11    1
    26    10    13    1
    27    11    26    1
    28    11    24    1
    29    31    13    1
    30    13    32    1
    31    13    30    1
