@<TRIPOS>MOLECULE
2,3
 36 35 0 0 0
SMALL
GASTEIGER

@<TRIPOS>ATOM
      1 SI          6.3408    2.9124   13.1821 Si      1  UNL1        0.0000
      2 O           4.2268    0.6861   16.5581 O.3     1  UNL1        0.0000
      3 O           3.1421    3.3054   16.0749 O.3     1  UNL1        0.0000
      4 N           5.0095    2.1735   14.0790 N.3     1  UNL1        0.0000
      5 C           3.4838   -0.0901   17.4829 C.3     1  UNL1        0.0000
      6 H           2.4574   -0.2453   17.1274 H       1  UNL1        0.0000
      7 H           3.4712    0.4635   18.4214 H       1  UNL1        0.0000
      8 H           3.9576   -1.0663   17.6344 H       1  UNL1        0.0000
      9 C           4.2292    0.0697   15.2854 C.3     1  UNL1        0.0000
     10 H           3.1974    0.0352   14.8987 H       1  UNL1        0.0000
     11 H           4.5684   -0.9736   15.3843 H       1  UNL1        0.0000
     12 C           5.1669    0.7459   14.2819 C.3     1  UNL1        0.0000
     13 H           6.1918    0.5941   14.6214 H       1  UNL1        0.0000
     14 H           5.0355    0.1898   13.3377 H       1  UNL1        0.0000
     15 C           3.6630    2.6276   13.7680 C.3     1  UNL1        0.0000
     16 H           2.9571    1.7994   13.8469 H       1  UNL1        0.0000
     17 H           3.5875    3.0126   12.7451 H       1  UNL1        0.0000
     18 C           3.2467    3.7475   14.7291 C.3     1  UNL1        0.0000
     19 H           4.0199    4.5168   14.7246 H       1  UNL1        0.0000
     20 H           2.2940    4.1872   14.4050 H       1  UNL1        0.0000
     21 C           1.8605    2.7872   16.3807 C.3     1  UNL1        0.0000
     22 H           1.0919    3.5545   16.2279 H       1  UNL1        0.0000
     23 H           1.8805    2.5026   17.4295 H       1  UNL1        0.0000
     24 H           1.6118    1.9190   15.7607 H       1  UNL1        0.0000
     25 C           7.9068    2.8411   14.2490 C.3     1  UNL1        0.0000
     26 H           7.6917    3.1214   15.2812 H       1  UNL1        0.0000
     27 H           8.6539    3.5288   13.8666 H       1  UNL1        0.0000
     28 H           8.3563    1.8529   14.2539 H       1  UNL1        0.0000
     29 C           6.6165    1.9509   11.5428 C.3     1  UNL1        0.0000
     30 H           6.9528    0.9348   11.7280 H       1  UNL1        0.0000
     31 H           7.3700    2.4298   10.9258 H       1  UNL1        0.0000
     32 H           5.7064    1.8904   10.9511 H       1  UNL1        0.0000
     33 C           5.9235    4.7054   12.6904 C.3     1  UNL1        0.0000
     34 H           4.9767    4.7930   12.1676 H       1  UNL1        0.0000
     35 H           6.6947    5.0769   12.0235 H       1  UNL1        0.0000
     36 H           5.8952    5.3728   13.5441 H       1  UNL1        0.0000
@<TRIPOS>BOND
     1    31    29    1
     2    32    29    1
     3    29    30    1
     4    29     1    1
     5    35    33    1
     6    34    33    1
     7    33     1    1
     8    33    36    1
     9    17    15    1
    10     1     4    1
    11     1    25    1
    12    14    12    1
    13    15    16    1
    14    15     4    1
    15    15    18    1
    16    27    25    1
    17     4    12    1
    18    25    28    1
    19    25    26    1
    20    12    13    1
    21    12     9    1
    22    20    18    1
    23    19    18    1
    24    18     3    1
    25    10     9    1
    26     9    11    1
    27     9     2    1
    28    24    21    1
    29     3    21    1
    30    22    21    1
    31    21    23    1
    32     2     5    1
    33     6     5    1
    34     5     8    1
    35     5     7    1
