@<TRIPOS>MOLECULE
3,4
 78 81 0 0 0
SMALL
GASTEIGER

@<TRIPOS>ATOM
      1 SI         10.5708   13.8254    9.8072 Si      1  UNL1        0.0000
      2 SI         12.4217    9.3435   12.3325 Si      1  UNL1        0.0000
      3 O          13.7995   14.8819   12.2640 O.3     1  UNL1        0.0000
      4 O          15.2039   12.1677   13.7810 O.3     1  UNL1        0.0000
      5 C          12.8662   15.1782   11.2829 C.3     1  UNL1        0.0000
      6 C          12.1970   13.8932   10.7756 C.3     1  UNL1        0.0000
      7 C          12.7008   12.7774   11.2593 C.1     1  UNL1        0.0000
      8 C          13.3107   11.9289   11.9819 C.1     1  UNL1        0.0000
      9 C          13.5558   10.8266   12.6708 C.3     1  UNL1        0.0000
     10 C          14.5030   10.9721   13.8520 C.3     1  UNL1        0.0000
     11 C          13.5724   15.9337   10.1636 C.ar    1  UNL1        0.0000
     12 C          13.6544   15.4697    8.8579 C.ar    1  UNL1        0.0000
     13 H          13.1745   14.5414    8.5832 H       1  UNL1        0.0000
     14 C          14.3578   16.1849    7.9022 C.ar    1  UNL1        0.0000
     15 H          14.4150   15.8112    6.8901 H       1  UNL1        0.0000
     16 C          14.9902   17.3680    8.2397 C.ar    1  UNL1        0.0000
     17 H          15.5368   17.9239    7.4923 H       1  UNL1        0.0000
     18 C          14.9253   17.8309    9.5442 C.ar    1  UNL1        0.0000
     19 H          15.4223   18.7504    9.8174 H       1  UNL1        0.0000
     20 C          14.2261   17.1161   10.4990 C.ar    1  UNL1        0.0000
     21 H          14.1771   17.4675   11.5195 H       1  UNL1        0.0000
     22 C          11.7394   16.0048   11.9014 C.ar    1  UNL1        0.0000
     23 C          11.1849   17.1198   11.2900 C.ar    1  UNL1        0.0000
     24 H          11.5554   17.4537   10.3326 H       1  UNL1        0.0000
     25 C          10.1625   17.8171   11.9123 C.ar    1  UNL1        0.0000
     26 H           9.7383   18.6859   11.4298 H       1  UNL1        0.0000
     27 C           9.6872   17.4108   13.1466 C.ar    1  UNL1        0.0000
     28 H           8.8916   17.9592   13.6292 H       1  UNL1        0.0000
     29 C          10.2406   16.2996   13.7622 C.ar    1  UNL1        0.0000
     30 H           9.8756   15.9788   14.7271 H       1  UNL1        0.0000
     31 C          11.2576   15.6006   13.1408 C.ar    1  UNL1        0.0000
     32 H          11.7025   14.7322   13.6094 H       1  UNL1        0.0000
     33 C          13.5261   11.0312   15.0315 C.ar    1  UNL1        0.0000
     34 C          12.7908   12.2055   15.1651 C.ar    1  UNL1        0.0000
     35 H          12.9655   13.0091   14.4461 H       1  UNL1        0.0000
     36 C          11.8715   12.3437   16.1873 C.ar    1  UNL1        0.0000
     37 H          11.3070   13.2595   16.2868 H       1  UNL1        0.0000
     38 C          11.6712   11.3048   17.0836 C.ar    1  UNL1        0.0000
     39 H          10.9526   11.4093   17.8828 H       1  UNL1        0.0000
     40 C          12.3975   10.1347   16.9513 C.ar    1  UNL1        0.0000
     41 H          12.2472    9.3243   17.6498 H       1  UNL1        0.0000
     42 C          13.3223    9.9938   15.9286 C.ar    1  UNL1        0.0000
     43 H          13.8912    9.0810   15.8404 H       1  UNL1        0.0000
     44 C          15.5460    9.8739   13.9628 C.ar    1  UNL1        0.0000
     45 C          16.3234    9.8106   15.1149 C.ar    1  UNL1        0.0000
     46 H          16.1144   10.4901   15.9283 H       1  UNL1        0.0000
     47 C          17.3593    8.9007   15.2151 C.ar    1  UNL1        0.0000
     48 H          17.9513    8.8578   16.1178 H       1  UNL1        0.0000
     49 C          17.6447    8.0517   14.1584 C.ar    1  UNL1        0.0000
     50 H          18.4550    7.3416   14.2353 H       1  UNL1        0.0000
     51 C          16.8959    8.1301   12.9977 C.ar    1  UNL1        0.0000
     52 H          17.1243    7.4847   12.1618 H       1  UNL1        0.0000
     53 C          15.8569    9.0402   12.8979 C.ar    1  UNL1        0.0000
     54 H          15.2883    9.1037   11.9820 H       1  UNL1        0.0000
     55 C          10.2207   15.2968    8.6417 C.3     1  UNL1        0.0000
     56 H          11.1162   15.7006    8.1813 H       1  UNL1        0.0000
     57 H           9.5534   14.9870    7.8427 H       1  UNL1        0.0000
     58 H           9.7335   16.1055    9.1766 H       1  UNL1        0.0000
     59 C          10.6443   12.2116    8.7858 C.3     1  UNL1        0.0000
     60 H          10.8172   11.3512    9.4250 H       1  UNL1        0.0000
     61 H           9.7118   12.0462    8.2557 H       1  UNL1        0.0000
     62 H          11.4387   12.2335    8.0455 H       1  UNL1        0.0000
     63 C           9.1347   13.7183   11.0635 C.3     1  UNL1        0.0000
     64 H           9.3282   12.9733   11.8293 H       1  UNL1        0.0000
     65 H           8.9821   14.6687   11.5658 H       1  UNL1        0.0000
     66 H           8.2047   13.4518   10.5709 H       1  UNL1        0.0000
     67 C          12.6334    8.8941   10.4850 C.3     1  UNL1        0.0000
     68 H          11.7617    8.3637   10.1144 H       1  UNL1        0.0000
     69 H          13.4940    8.2530   10.3174 H       1  UNL1        0.0000
     70 H          12.7622    9.7844    9.8765 H       1  UNL1        0.0000
     71 C          10.6441    9.9647   12.6531 C.3     1  UNL1        0.0000
     72 H          10.5106   10.2452   13.6944 H       1  UNL1        0.0000
     73 H           9.9048    9.2056   12.4177 H       1  UNL1        0.0000
     74 H          10.4281   10.8397   12.0474 H       1  UNL1        0.0000
     75 C          12.7260    7.7946   13.4022 C.3     1  UNL1        0.0000
     76 H          12.2796    7.9037   14.3849 H       1  UNL1        0.0000
     77 H          13.7807    7.5790   13.5368 H       1  UNL1        0.0000
     78 H          12.2712    6.9275   12.9329 H       1  UNL1        0.0000
@<TRIPOS>BOND
     1    15    14    1
     2    17    16    1
     3    57    55    1
     4    14    16   ar
     5    14    12   ar
     6    62    59    1
     7    56    55    1
     8    16    18   ar
     9    61    59    1
    10    13    12    1
    11    55    58    1
    12    55     1    1
    13    59    60    1
    14    59     1    1
    15    12    11   ar
    16    18    19    1
    17    18    20   ar
    18     1     6    1
    19     1    63    1
    20    70    67    1
    21    68    67    1
    22    11    20   ar
    23    11     5    1
    24    69    67    1
    25    24    23    1
    26    67     2    1
    27    20    21    1
    28    66    63    1
    29     6     7    1
    30     6     5    1
    31    63    65    1
    32    63    64    1
    33     7     8    3
    34     5    22    1
    35     5     3    1
    36    23    22   ar
    37    23    25   ar
    38    26    25    1
    39    22    31   ar
    40    25    27   ar
    41     8     9    1
    42    54    53    1
    43    74    71    1
    44    52    51    1
    45     2    71    1
    46     2     9    1
    47     2    75    1
    48    73    71    1
    49    71    72    1
    50     9    10    1
    51    53    51   ar
    52    53    44   ar
    53    78    75    1
    54    51    49   ar
    55    31    32    1
    56    31    29   ar
    57    27    28    1
    58    27    29   ar
    59    75    77    1
    60    75    76    1
    61    29    30    1
    62     4    10    1
    63    10    44    1
    64    10    33    1
    65    44    45   ar
    66    49    50    1
    67    49    47   ar
    68    35    34    1
    69    33    34   ar
    70    33    42   ar
    71    45    47   ar
    72    45    46    1
    73    34    36   ar
    74    47    48    1
    75    43    42    1
    76    42    40   ar
    77    36    37    1
    78    36    38   ar
    79    40    38   ar
    80    40    41    1
    81    38    39    1
