@<TRIPOS>MOLECULE
3,4
 74 79 0 0 0
SMALL
GASTEIGER

@<TRIPOS>ATOM
      1 SI          4.5206   11.3058    1.4850 Si      1  UNL1        0.0000
      2 SI          5.0346    5.7593    2.0437 Si      1  UNL1        0.0000
      3 O           2.4049   10.0622    4.9021 O.3     1  UNL1        0.0000
      4 O           2.6928    6.6006    5.4167 O.3     1  UNL1        0.0000
      5 C           2.8349   10.9804    3.9735 C.3     1  UNL1        0.0000
      6 C           3.7544   10.3481    2.9238 C.3     1  UNL1        0.0000
      7 C           3.8987    9.0475    3.0322 C.1     1  UNL1        0.0000
      8 C           3.8079    7.8422    3.4282 C.1     1  UNL1        0.0000
      9 C           3.9900    6.5332    3.4210 C.3     1  UNL1        0.0000
     10 C           3.3849    5.7566    4.5630 C.3     1  UNL1        0.0000
     11 C           1.6922   11.6501    3.2189 C.ar    1  UNL1        0.0000
     12 C           0.7530   11.0608    2.4010 C.ar    1  UNL1        0.0000
     13 H           0.7788    9.9952    2.2196 H       1  UNL1        0.0000
     14 C          -0.2144   11.8681    1.8161 C.ar    1  UNL1        0.0000
     15 H          -0.9637   11.4272    1.1753 H       1  UNL1        0.0000
     16 C          -0.2258   13.2364    2.0424 C.ar    1  UNL1        0.0000
     17 H          -0.9853   13.8463    1.5753 H       1  UNL1        0.0000
     18 C           0.7263   13.8327    2.8551 C.ar    1  UNL1        0.0000
     19 H           0.7158   14.8998    3.0206 H       1  UNL1        0.0000
     20 C           1.6893   13.0320    3.4470 C.ar    1  UNL1        0.0000
     21 C           2.8105   13.3625    4.3153 C.ar    1  UNL1        0.0000
     22 C           3.2424   14.5780    4.8192 C.ar    1  UNL1        0.0000
     23 H           2.7066   15.4897    4.5996 H       1  UNL1        0.0000
     24 C           4.3811   14.6028    5.6097 C.ar    1  UNL1        0.0000
     25 H           4.7305   15.5421    6.0131 H       1  UNL1        0.0000
     26 C           5.0819   13.4386    5.8839 C.ar    1  UNL1        0.0000
     27 H           5.9712   13.4825    6.4955 H       1  UNL1        0.0000
     28 C           4.6547   12.2166    5.3792 C.ar    1  UNL1        0.0000
     29 H           5.2051   11.3089    5.5805 H       1  UNL1        0.0000
     30 C           3.5144   12.1860    4.6069 C.ar    1  UNL1        0.0000
     31 C           2.5025    4.6162    4.0705 C.ar    1  UNL1        0.0000
     32 C           1.3971    4.6884    3.2525 C.ar    1  UNL1        0.0000
     33 H           1.0807    5.6367    2.8413 H       1  UNL1        0.0000
     34 C           0.7087    3.5159    2.9645 C.ar    1  UNL1        0.0000
     35 H          -0.1615    3.5500    2.3253 H       1  UNL1        0.0000
     36 C           1.1269    2.3024    3.4880 C.ar    1  UNL1        0.0000
     37 H           0.5752    1.4035    3.2537 H       1  UNL1        0.0000
     38 C           2.2485    2.2251    4.3002 C.ar    1  UNL1        0.0000
     39 H           2.5767    1.2745    4.6936 H       1  UNL1        0.0000
     40 C           2.9398    3.3895    4.5885 C.ar    1  UNL1        0.0000
     41 C           4.1669    3.6141    5.3410 C.ar    1  UNL1        0.0000
     42 C           5.0148    2.7304    5.9871 C.ar    1  UNL1        0.0000
     43 H           4.7844    1.6765    6.0344 H       1  UNL1        0.0000
     44 C           6.1742    3.2252    6.5655 C.ar    1  UNL1        0.0000
     45 H           6.8463    2.5497    7.0745 H       1  UNL1        0.0000
     46 C           6.4902    4.5729    6.4885 C.ar    1  UNL1        0.0000
     47 H           7.4065    4.9323    6.9336 H       1  UNL1        0.0000
     48 C           5.6420    5.4653    5.8434 C.ar    1  UNL1        0.0000
     49 H           5.8883    6.5158    5.7685 H       1  UNL1        0.0000
     50 C           4.4787    4.9791    5.2891 C.ar    1  UNL1        0.0000
     51 C           5.9223   10.2056    0.7989 C.3     1  UNL1        0.0000
     52 H           6.7249   10.0900    1.5208 H       1  UNL1        0.0000
     53 H           6.3519   10.6413   -0.0975 H       1  UNL1        0.0000
     54 H           5.5665    9.2124    0.5453 H       1  UNL1        0.0000
     55 C           3.2160   11.5927    0.1184 C.3     1  UNL1        0.0000
     56 H           2.7033   10.6722   -0.1443 H       1  UNL1        0.0000
     57 H           3.6825   11.9775   -0.7835 H       1  UNL1        0.0000
     58 H           2.4624   12.3090    0.4309 H       1  UNL1        0.0000
     59 C           5.2633   12.9879    1.9905 C.3     1  UNL1        0.0000
     60 H           4.4919   13.7122    2.2302 H       1  UNL1        0.0000
     61 H           5.8553   13.3963    1.1766 H       1  UNL1        0.0000
     62 H           5.9103   12.9037    2.8581 H       1  UNL1        0.0000
     63 C           6.7975    6.4746    2.2165 C.3     1  UNL1        0.0000
     64 H           6.7704    7.5554    2.3142 H       1  UNL1        0.0000
     65 H           7.4076    6.2351    1.3512 H       1  UNL1        0.0000
     66 H           7.2996    6.0750    3.0930 H       1  UNL1        0.0000
     67 C           4.2333    6.3089    0.3977 C.3     1  UNL1        0.0000
     68 H           3.3177    5.7584    0.2019 H       1  UNL1        0.0000
     69 H           4.9006    6.1421   -0.4418 H       1  UNL1        0.0000
     70 H           3.9829    7.3655    0.4197 H       1  UNL1        0.0000
     71 C           5.1241    3.8572    2.0845 C.3     1  UNL1        0.0000
     72 H           5.5963    3.4960    2.9923 H       1  UNL1        0.0000
     73 H           5.7085    3.4944    1.2443 H       1  UNL1        0.0000
     74 H           4.1407    3.4025    2.0213 H       1  UNL1        0.0000
@<TRIPOS>BOND
     1    57    55    1
     2    69    67    1
     3    56    55    1
     4    53    51    1
     5    55    58    1
     6    55     1    1
     7    68    67    1
     8    67    70    1
     9    67     2    1
    10    54    51    1
    11    51     1    1
    12    51    52    1
    13    15    14    1
    14    61    59    1
    15    73    71    1
    16    65    63    1
    17     1    59    1
    18     1     6    1
    19    17    16    1
    20    14    16   ar
    21    14    12   ar
    22    59    60    1
    23    59    62    1
    24    74    71    1
    25    16    18   ar
    26     2    71    1
    27     2    63    1
    28     2     9    1
    29    71    72    1
    30    63    64    1
    31    63    66    1
    32    13    12    1
    33    35    34    1
    34    12    11   ar
    35    33    32    1
    36    18    19    1
    37    18    20   ar
    38     6     7    1
    39     6     5    1
    40    34    32   ar
    41    34    36   ar
    42     7     8    3
    43    11    20   ar
    44    11     5    1
    45    32    31   ar
    46    37    36    1
    47     9     8    1
    48     9    10    1
    49    20    21    1
    50    36    38   ar
    51     5    30    1
    52     5     3    1
    53    31    10    1
    54    31    40   ar
    55    38    40   ar
    56    38    39    1
    57    21    30   ar
    58    21    22   ar
    59    10    50    1
    60    10     4    1
    61    40    41    1
    62    23    22    1
    63    30    28   ar
    64    22    24   ar
    65    50    41   ar
    66    50    48   ar
    67    41    42   ar
    68    28    29    1
    69    28    26   ar
    70    24    26   ar
    71    24    25    1
    72    49    48    1
    73    48    46   ar
    74    26    27    1
    75    42    43    1
    76    42    44   ar
    77    46    44   ar
    78    46    47    1
    79    44    45    1
