@<TRIPOS>MOLECULE
1,2
 20 19 0 0 0
SMALL
GASTEIGER

@<TRIPOS>ATOM
      1 O           3.3903    1.1210    2.7962 O.3     1  UNL1       -0.2251
      2 O           1.9378    2.9973    2.9459 O.3     1  UNL1       -0.2251
      3 C           4.0664    2.1501    3.4291 C.3     1  UNL1        0.1300
      4 C           3.2489    3.4417    2.9698 C.3     1  UNL1        0.1300
      5 C           5.5340    2.1785    2.9884 C.3     1  UNL1       -0.0302
      6 C           3.9788    1.9487    4.9512 C.3     1  UNL1       -0.0302
      7 C           3.3939    4.6226    3.9345 C.3     1  UNL1       -0.0302
      8 C           3.6556    3.8699    1.5501 C.3     1  UNL1       -0.0302
      9 H           6.0452    1.3276    3.4311 H       1  UNL1        0.0259
     10 H           6.0150    3.0929    3.3242 H       1  UNL1        0.0259
     11 H           5.6131    2.0954    1.9096 H       1  UNL1        0.0259
     12 H           4.3708    0.9618    5.1852 H       1  UNL1        0.0259
     13 H           4.5587    2.6989    5.4803 H       1  UNL1        0.0259
     14 H           2.9388    1.9790    5.2713 H       1  UNL1        0.0259
     15 H           2.9053    5.4926    3.5016 H       1  UNL1        0.0259
     16 H           4.4429    4.8538    4.0964 H       1  UNL1        0.0259
     17 H           2.9169    4.4008    4.8839 H       1  UNL1        0.0259
     18 H           2.9365    4.6047    1.1925 H       1  UNL1        0.0259
     19 H           4.6466    4.3134    1.5392 H       1  UNL1        0.0259
     20 H           3.6256    3.0084    0.8841 H       1  UNL1        0.0259
@<TRIPOS>BOND
     1    20     8    1
     2    18     8    1
     3    19     8    1
     4     8     4    1
     5    11     5    1
     6     1     3    1
     7     2     4    1
     8     4     3    1
     9     4     7    1
    10     5    10    1
    11     5     3    1
    12     5     9    1
    13     3     6    1
    14    15     7    1
    15     7    16    1
    16     7    17    1
    17     6    12    1
    18     6    14    1
    19     6    13    1
