@<TRIPOS>MOLECULE
1,2
 157 168 0 0 0
SMALL
GASTEIGER

@<TRIPOS>ATOM
      1 O          15.7984    3.1862   20.5654 O.3     1  UNL1        0.0000
      2 O          13.3021    5.4502   19.1819 O.3     1  UNL1        0.0000
      3 O          16.5967    2.8197   18.1916 O.3     1  UNL1        0.0000
      4 O          18.0247    4.4249   19.7773 O.3     1  UNL1        0.0000
      5 O          14.2663    4.2789   17.1748 O.3     1  UNL1        0.0000
      6 O          15.0252    6.8124   17.7661 O.3     1  UNL1        0.0000
      7 O          15.5161    2.4582   15.8214 O.3     1  UNL1        0.0000
      8 O          18.1126    2.3542   16.0381 O.3     1  UNL1        0.0000
      9 O          15.2940    4.9525   14.8448 O.3     1  UNL1        0.0000
     10 O          17.7128    6.7020   18.4825 O.3     1  UNL1        0.0000
     11 O          16.9113    6.8131   15.9630 O.3     1  UNL1        0.0000
     12 O          18.7119    4.6295   17.1963 O.3     1  UNL1        0.0000
     13 O          17.9290    4.7021   14.6897 O.3     1  UNL1        0.0000
     14 SI         17.1318    3.0492   19.7288 Si      1  UNL1        0.0000
     15 SI         13.7738    5.7595   17.7073 Si      1  UNL1        0.0000
     16 SI         16.7181    2.0131   16.8098 Si      1  UNL1        0.0000
     17 SI         14.5704    3.7601   15.6792 Si      1  UNL1        0.0000
     18 SI         16.5478    7.2451   17.4934 Si      1  UNL1        0.0000
     19 SI         18.6337    5.3744   18.6357 Si      1  UNL1        0.0000
     20 SI         18.7347    3.8339   15.7985 Si      1  UNL1        0.0000
     21 SI         16.6966    5.7566   14.7572 Si      1  UNL1        0.0000
     22 C          18.4720    1.7579   20.2133 C.3     1  UNL1        0.0000
     23 H          18.9667    2.1261   21.1203 H       1  UNL1        0.0000
     24 C          17.9929    0.3355   20.5080 C.3     1  UNL1        0.0000
     25 H          17.2812    0.3536   21.3289 H       1  UNL1        0.0000
     26 H          17.4835   -0.0642   19.6327 H       1  UNL1        0.0000
     27 C          19.1588   -0.5810   20.8794 C.3     1  UNL1        0.0000
     28 H          19.6256   -0.2184   21.7979 H       1  UNL1        0.0000
     29 H          18.7872   -1.5906   21.0692 H       1  UNL1        0.0000
     30 C          20.2038   -0.6098   19.7695 C.3     1  UNL1        0.0000
     31 H          19.7586   -1.0183   18.8604 H       1  UNL1        0.0000
     32 H          21.0370   -1.2559   20.0558 H       1  UNL1        0.0000
     33 C          20.7027    0.8043   19.4929 C.3     1  UNL1        0.0000
     34 H          21.4395    0.7902   18.6875 H       1  UNL1        0.0000
     35 H          21.1910    1.1958   20.3882 H       1  UNL1        0.0000
     36 C          19.5336    1.7080   19.1080 C.3     1  UNL1        0.0000
     37 H          19.0795    1.3377   18.1888 H       1  UNL1        0.0000
     38 H          19.8911    2.7152   18.9014 H       1  UNL1        0.0000
     39 C          12.5312    6.4837   16.4428 C.3     1  UNL1        0.0000
     40 H          13.0139    6.3651   15.4655 H       1  UNL1        0.0000
     41 C          11.2048    5.7187   16.4093 C.3     1  UNL1        0.0000
     42 H          10.7144    5.8253   17.3759 H       1  UNL1        0.0000
     43 H          11.4020    4.6597   16.2583 H       1  UNL1        0.0000
     44 C          10.2863    6.2379   15.3034 C.3     1  UNL1        0.0000
     45 H          10.7506    6.0626   14.3313 H       1  UNL1        0.0000
     46 H           9.3391    5.6940   15.3236 H       1  UNL1        0.0000
     47 C          10.0281    7.7319   15.4697 C.3     1  UNL1        0.0000
     48 H           9.3968    8.0954   14.6556 H       1  UNL1        0.0000
     49 H           9.4987    7.9039   16.4087 H       1  UNL1        0.0000
     50 C          11.3494    8.4939   15.4901 C.3     1  UNL1        0.0000
     51 H          11.1613    9.5614   15.6252 H       1  UNL1        0.0000
     52 H          11.8600    8.3614   14.5339 H       1  UNL1        0.0000
     53 C          12.2382    7.9757   16.6186 C.3     1  UNL1        0.0000
     54 H          11.7317    8.1362   17.5697 H       1  UNL1        0.0000
     55 H          13.1764    8.5279   16.6418 H       1  UNL1        0.0000
     56 C          16.5280    0.1268   16.9389 C.3     1  UNL1        0.0000
     57 H          17.3340   -0.3225   17.5271 H       1  UNL1        0.0000
     58 C          16.5548   -0.5421   15.5592 C.3     1  UNL1        0.0000
     59 H          17.5123   -0.3397   15.0787 H       1  UNL1        0.0000
     60 H          15.7748   -0.1019   14.9389 H       1  UNL1        0.0000
     61 C          16.3303   -2.0485   15.6727 C.3     1  UNL1        0.0000
     62 H          16.3353   -2.4994   14.6782 H       1  UNL1        0.0000
     63 H          17.1446   -2.4965   16.2468 H       1  UNL1        0.0000
     64 C          15.0049   -2.3418   16.3692 C.3     1  UNL1        0.0000
     65 H          14.1858   -1.9392   15.7703 H       1  UNL1        0.0000
     66 H          14.8586   -3.4210   16.4565 H       1  UNL1        0.0000
     67 C          14.9851   -1.6967   17.7519 C.3     1  UNL1        0.0000
     68 H          15.7820   -2.1341   18.3583 H       1  UNL1        0.0000
     69 H          14.0343   -1.9034   18.2472 H       1  UNL1        0.0000
     70 C          15.2000   -0.1894   17.6351 C.3     1  UNL1        0.0000
     71 H          15.1755    0.2837   18.6187 H       1  UNL1        0.0000
     72 H          14.3927    0.2481   17.0458 H       1  UNL1        0.0000
     73 C          13.1427    3.1663   14.5407 C.3     1  UNL1        0.0000
     74 H          12.1908    3.1602   15.0793 H       1  UNL1        0.0000
     75 C          13.3824    1.7303   14.0527 C.3     1  UNL1        0.0000
     76 H          13.4864    1.0681   14.9115 H       1  UNL1        0.0000
     77 H          14.3217    1.6984   13.5001 H       1  UNL1        0.0000
     78 C          12.2433    1.2431   13.1603 C.3     1  UNL1        0.0000
     79 H          12.4535    0.2279   12.8162 H       1  UNL1        0.0000
     80 H          11.3165    1.2134   13.7362 H       1  UNL1        0.0000
     81 C          12.0602    2.1689   11.9631 C.3     1  UNL1        0.0000
     82 H          11.2258    1.8247   11.3476 H       1  UNL1        0.0000
     83 H          12.9623    2.1492   11.3489 H       1  UNL1        0.0000
     84 C          11.8078    3.5946   12.4405 C.3     1  UNL1        0.0000
     85 H          10.8787    3.6250   13.0143 H       1  UNL1        0.0000
     86 H          11.6935    4.2595   11.5813 H       1  UNL1        0.0000
     87 C          12.9629    4.0734   13.3164 C.3     1  UNL1        0.0000
     88 H          12.7807    5.0975   13.6397 H       1  UNL1        0.0000
     89 H          13.8865    4.0732   12.7375 H       1  UNL1        0.0000
     90 C          16.6432    9.1537   17.5885 C.3     1  UNL1        0.0000
     91 H          16.1071    9.4848   18.4842 H       1  UNL1        0.0000
     92 C          15.9817    9.8399   16.3889 C.3     1  UNL1        0.0000
     93 H          14.9544    9.4917   16.2836 H       1  UNL1        0.0000
     94 H          16.5198    9.5597   15.4832 H       1  UNL1        0.0000
     95 C          16.0034   11.3593   16.5426 C.3     1  UNL1        0.0000
     96 H          15.5280   11.8278   15.6778 H       1  UNL1        0.0000
     97 H          15.4361   11.6439   17.4314 H       1  UNL1        0.0000
     98 C          17.4376   11.8596   16.6804 C.3     1  UNL1        0.0000
     99 H          17.4452   12.9437   16.8141 H       1  UNL1        0.0000
    100 H          17.9891   11.6304   15.7665 H       1  UNL1        0.0000
    101 C          18.1197   11.1801   17.8634 C.3     1  UNL1        0.0000
    102 H          17.6031   11.4571   18.7846 H       1  UNL1        0.0000
    103 H          19.1538   11.5224   17.9424 H       1  UNL1        0.0000
    104 C          18.0847    9.6622   17.7023 C.3     1  UNL1        0.0000
    105 H          18.5747    9.1866   18.5498 H       1  UNL1        0.0000
    106 H          18.6330    9.3773   16.8031 H       1  UNL1        0.0000
    107 C          20.5069    5.7230   18.9052 C.3     1  UNL1        0.0000
    108 H          20.9811    5.1609   18.0918 H       1  UNL1        0.0000
    109 C          20.9115    7.1832   18.6868 C.3     1  UNL1        0.0000
    110 H          20.4606    7.5493   17.7641 H       1  UNL1        0.0000
    111 H          20.5378    7.7932   19.5077 H       1  UNL1        0.0000
    112 C          22.4315    7.3161   18.6146 C.3     1  UNL1        0.0000
    113 H          22.8043    6.7592   17.7521 H       1  UNL1        0.0000
    114 H          22.7079    8.3640   18.4788 H       1  UNL1        0.0000
    115 C          23.0785    6.7711   19.8843 C.3     1  UNL1        0.0000
    116 H          22.7592    7.3741   20.7368 H       1  UNL1        0.0000
    117 H          24.1658    6.8460   19.8106 H       1  UNL1        0.0000
    118 C          22.6692    5.3189   20.1121 C.3     1  UNL1        0.0000
    119 H          23.1228    4.9478   21.0340 H       1  UNL1        0.0000
    120 H          23.0411    4.7059   19.2880 H       1  UNL1        0.0000
    121 C          21.1477    5.1986   20.1946 C.3     1  UNL1        0.0000
    122 H          20.7923    5.7658   21.0504 H       1  UNL1        0.0000
    123 H          20.8654    4.1576   20.3483 H       1  UNL1        0.0000
    124 C          20.5072    3.6388   15.1433 C.3     1  UNL1        0.0000
    125 H          20.4800    3.1377   14.1706 H       1  UNL1        0.0000
    126 C          21.1489    5.0131   14.9296 C.3     1  UNL1        0.0000
    127 H          20.5390    5.5872   14.2320 H       1  UNL1        0.0000
    128 H          21.1588    5.5550   15.8754 H       1  UNL1        0.0000
    129 C          22.5748    4.8861   14.3982 C.3     1  UNL1        0.0000
    130 H          22.5555    4.4069   13.4171 H       1  UNL1        0.0000
    131 H          23.0158    5.8781   14.2780 H       1  UNL1        0.0000
    132 C          23.4268    4.0495   15.3472 C.3     1  UNL1        0.0000
    133 H          23.4854    4.5484   16.3168 H       1  UNL1        0.0000
    134 H          24.4426    3.9567   14.9562 H       1  UNL1        0.0000
    135 C          22.8061    2.6681   15.5272 C.3     1  UNL1        0.0000
    136 H          22.7864    2.1546   14.5637 H       1  UNL1        0.0000
    137 H          23.4147    2.0727   16.2118 H       1  UNL1        0.0000
    138 C          21.3836    2.7904   16.0685 C.3     1  UNL1        0.0000
    139 H          21.4141    3.2502   17.0567 H       1  UNL1        0.0000
    140 H          20.9373    1.8022   16.1783 H       1  UNL1        0.0000
    141 C          16.6619    6.7691   13.1479 C.3     1  UNL1        0.0000
    142 H          16.7101    6.0990   12.2842 H       1  UNL1        0.0000
    143 C          15.3616    7.5728   13.0373 C.3     1  UNL1        0.0000
    144 H          14.5154    6.8859   13.0481 H       1  UNL1        0.0000
    145 H          15.2719    8.2250   13.9063 H       1  UNL1        0.0000
    146 C          15.3326    8.4136   11.7633 C.3     1  UNL1        0.0000
    147 H          15.3597    7.7551   10.8924 H       1  UNL1        0.0000
    148 H          14.4057    8.9898   11.7194 H       1  UNL1        0.0000
    149 C          16.5314    9.3550   11.7177 C.3     1  UNL1        0.0000
    150 H          16.5079    9.9484   10.8008 H       1  UNL1        0.0000
    151 H          16.4830   10.0421   12.5648 H       1  UNL1        0.0000
    152 C          17.8270    8.5539   11.7897 C.3     1  UNL1        0.0000
    153 H          18.6849    9.2296   11.7647 H       1  UNL1        0.0000
    154 H          17.8927    7.8974   10.9195 H       1  UNL1        0.0000
    155 C          17.8648    7.7136   13.0636 C.3     1  UNL1        0.0000
    156 H          18.7843    7.1285   13.0976 H       1  UNL1        0.0000
    157 H          17.8603    8.3696   13.9344 H       1  UNL1        0.0000
@<TRIPOS>BOND
     1   150   149    1
     2   147   146    1
     3   154   152    1
     4    82    81    1
     5    83    81    1
     6    86    84    1
     7   149   146    1
     8   149   152    1
     9   149   151    1
    10   148   146    1
    11   146   143    1
    12   153   152    1
    13   152   155    1
    14    81    84    1
    15    81    78    1
    16   142   141    1
    17    84    85    1
    18    84    87    1
    19    89    87    1
    20    79    78    1
    21   143   144    1
    22   143   141    1
    23   143   145    1
    24   155   156    1
    25   155   141    1
    26   155   157    1
    27   141    21    1
    28    78    80    1
    29    78    75    1
    30    87    88    1
    31    87    73    1
    32   130   129    1
    33    77    75    1
    34    75    73    1
    35    75    76    1
    36   125   124    1
    37   127   126    1
    38   131   129    1
    39    45    44    1
    40   129   126    1
    41   129   132    1
    42    52    50    1
    43    73    74    1
    44    73    17    1
    45   136   135    1
    46    48    47    1
    47    62    61    1
    48    13    21    1
    49    13    20    1
    50    21     9    1
    51    21    11    1
    52     9    17    1
    53   126   124    1
    54   126   128    1
    55    60    58    1
    56   134   132    1
    57    59    58    1
    58   124    20    1
    59   124   138    1
    60    44    46    1
    61    44    47    1
    62    44    41    1
    63   132   135    1
    64   132   133    1
    65    40    39    1
    66    47    50    1
    67    47    49    1
    68    94    92    1
    69    50    51    1
    70    50    53    1
    71   135   138    1
    72   135   137    1
    73    58    61    1
    74    58    56    1
    75    61    63    1
    76    61    64    1
    77    96    95    1
    78    17     7    1
    79    17     5    1
    80   100    98    1
    81    65    64    1
    82    20     8    1
    83    20    12    1
    84     7    16    1
    85    11    18    1
    86     8    16    1
    87   138   140    1
    88   138   139    1
    89    43    41    1
    90    93    92    1
    91    64    66    1
    92    64    67    1
    93    92    95    1
    94    92    90    1
    95    41    39    1
    96    41    42    1
    97    39    53    1
    98    39    15    1
    99    95    98    1
   100    95    97    1
   101    53    55    1
   102    53    54    1
   103    98    99    1
   104    98   101    1
   105   106   104    1
   106    16    56    1
   107    16     3    1
   108    56    57    1
   109    56    70    1
   110    72    70    1
   111     5    15    1
   112    12    19    1
   113    18    90    1
   114    18     6    1
   115    18    10    1
   116    90   104    1
   117    90    91    1
   118    70    67    1
   119    70    71    1
   120   104   101    1
   121   104   105    1
   122    15     6    1
   123    15     2    1
   124    67    69    1
   125    67    68    1
   126   113   112    1
   127   110   109    1
   128   101   103    1
   129   101   102    1
   130   108   107    1
   131    37    36    1
   132     3    14    1
   133   114   112    1
   134    10    19    1
   135   112   109    1
   136   112   115    1
   137    19   107    1
   138    19     4    1
   139   109   107    1
   140   109   111    1
   141    34    33    1
   142    31    30    1
   143    38    36    1
   144   107   121    1
   145    36    33    1
   146    36    22    1
   147   120   118    1
   148    33    30    1
   149    33    35    1
   150    26    24    1
   151    14     4    1
   152    14    22    1
   153    14     1    1
   154    30    32    1
   155    30    27    1
   156   117   115    1
   157   115   118    1
   158   115   116    1
   159   118   121    1
   160   118   119    1
   161   121   123    1
   162   121   122    1
   163    22    24    1
   164    22    23    1
   165    24    27    1
   166    24    25    1
   167    27    29    1
   168    27    28    1
