@<TRIPOS>MOLECULE
1,2
 157 168 0 0 0
SMALL
GASTEIGER

@<TRIPOS>ATOM
      1 O          15.5351    5.7592   20.3996 O.3     1  UNL1        0.0000
      2 O          13.4454    2.9035   19.5819 O.3     1  UNL1        0.0000
      3 O          14.7145    7.0863   22.5075 O.3     1  UNL1        0.0000
      4 O          16.2315    4.9933   22.8157 O.3     1  UNL1        0.0000
      5 O          11.0602    3.9842   20.2187 O.3     1  UNL1        0.0000
      6 O          11.9912    1.9466   21.5376 O.3     1  UNL1        0.0000
      7 O          12.7269    5.5510   21.5866 O.3     1  UNL1        0.0000
      8 O          12.4842    6.8869   23.8045 O.3     1  UNL1        0.0000
      9 O          10.7309    4.3421   22.8343 O.3     1  UNL1        0.0000
     10 O          14.0686    3.4548   22.3938 O.3     1  UNL1        0.0000
     11 O          12.2782    2.5146   24.0606 O.3     1  UNL1        0.0000
     12 O          14.2422    4.9622   24.5698 O.3     1  UNL1        0.0000
     13 O          11.7032    4.8166   25.2475 O.3     1  UNL1        0.0000
     14 SI         15.9933    6.2852   21.8096 Si      1  UNL1        0.0000
     15 SI         11.9599    2.6135   20.0172 Si      1  UNL1        0.0000
     16 SI         13.1345    6.9665   22.3066 Si      1  UNL1        0.0000
     17 SI         11.1730    5.0316   21.4315 Si      1  UNL1        0.0000
     18 SI         13.0874    2.1653   22.6903 Si      1  UNL1        0.0000
     19 SI         15.1079    4.0874   23.5152 Si      1  UNL1        0.0000
     20 SI         12.9351    5.8415   24.9671 Si      1  UNL1        0.0000
     21 SI         11.1391    3.6622   24.2498 Si      1  UNL1        0.0000
     22 C          17.3462    7.5522   22.2481 C.3     1  UNL1        0.0000
     23 H          17.2329    7.7394   23.3242 H       1  UNL1        0.0000
     24 C          17.1373    8.8880   21.5307 C.3     1  UNL1        0.0000
     25 H          17.2614    8.7314   20.4594 H       1  UNL1        0.0000
     26 H          16.1218    9.2395   21.7118 H       1  UNL1        0.0000
     27 C          18.1338    9.9344   22.0267 C.3     1  UNL1        0.0000
     28 H          17.9809   10.8776   21.4974 H       1  UNL1        0.0000
     29 H          17.9660   10.1163   23.0907 H       1  UNL1        0.0000
     30 C          19.5651    9.4539   21.8165 C.3     1  UNL1        0.0000
     31 H          20.2696   10.1914   22.2089 H       1  UNL1        0.0000
     32 H          19.7507    9.3523   20.7461 H       1  UNL1        0.0000
     33 C          19.7815    8.1088   22.5036 C.3     1  UNL1        0.0000
     34 H          19.6641    8.2356   23.5825 H       1  UNL1        0.0000
     35 H          20.8013    7.7625   22.3204 H       1  UNL1        0.0000
     36 C          18.7723    7.0732   22.0062 C.3     1  UNL1        0.0000
     37 H          18.9253    6.1211   22.5151 H       1  UNL1        0.0000
     38 H          18.8930    6.9047   20.9366 H       1  UNL1        0.0000
     39 C          10.9142    1.4569   18.9298 C.3     1  UNL1        0.0000
     40 H           9.8943    1.3971   19.3232 H       1  UNL1        0.0000
     41 C          11.4864    0.0381   18.8958 C.3     1  UNL1        0.0000
     42 H          12.5187    0.0873   18.5511 H       1  UNL1        0.0000
     43 H          11.4829   -0.3734   19.9061 H       1  UNL1        0.0000
     44 C          10.6822   -0.8699   17.9667 C.3     1  UNL1        0.0000
     45 H          11.1287   -1.8667   17.9448 H       1  UNL1        0.0000
     46 H           9.6630   -0.9678   18.3468 H       1  UNL1        0.0000
     47 C          10.6397   -0.2898   16.5571 C.3     1  UNL1        0.0000
     48 H          10.0572   -0.9405   15.9008 H       1  UNL1        0.0000
     49 H          11.6541   -0.2306   16.1596 H       1  UNL1        0.0000
     50 C          10.0297    1.1071   16.5914 C.3     1  UNL1        0.0000
     51 H           9.0033    1.0423   16.9597 H       1  UNL1        0.0000
     52 H           9.9953    1.5269   15.5839 H       1  UNL1        0.0000
     53 C          10.8415    2.0184   17.5087 C.3     1  UNL1        0.0000
     54 H          10.3918    3.0106   17.5437 H       1  UNL1        0.0000
     55 H          11.8587    2.1239   17.1272 H       1  UNL1        0.0000
     56 C          12.6194    8.6013   21.4773 C.3     1  UNL1        0.0000
     57 H          11.5513    8.6613   21.2590 H       1  UNL1        0.0000
     58 C          13.3768    8.7472   20.1505 C.3     1  UNL1        0.0000
     59 H          14.4481    8.6926   20.3439 H       1  UNL1        0.0000
     60 H          13.1426    7.9100   19.4931 H       1  UNL1        0.0000
     61 C          13.0467   10.0760   19.4755 C.3     1  UNL1        0.0000
     62 H          13.5983   10.1592   18.5389 H       1  UNL1        0.0000
     63 H          11.9804   10.1175   19.2420 H       1  UNL1        0.0000
     64 C          13.4003   11.2397   20.3971 C.3     1  UNL1        0.0000
     65 H          13.1584   12.1893   19.9140 H       1  UNL1        0.0000
     66 H          14.4726   11.2279   20.6002 H       1  UNL1        0.0000
     67 C          12.6372   11.1168   21.7124 C.3     1  UNL1        0.0000
     68 H          11.5653   11.1770   21.5127 H       1  UNL1        0.0000
     69 H          12.9006   11.9436   22.3751 H       1  UNL1        0.0000
     70 C          12.9537    9.7878   22.3948 C.3     1  UNL1        0.0000
     71 H          14.0121    9.7503   22.6511 H       1  UNL1        0.0000
     72 H          12.3877    9.6965   23.3220 H       1  UNL1        0.0000
     73 C           9.8548    6.3866   21.1882 C.3     1  UNL1        0.0000
     74 H          10.0859    7.1894   21.8966 H       1  UNL1        0.0000
     75 C           8.4446    5.8918   21.5363 C.3     1  UNL1        0.0000
     76 H           8.4481    5.4714   22.5403 H       1  UNL1        0.0000
     77 H           8.1629    5.0994   20.8426 H       1  UNL1        0.0000
     78 C           7.4378    7.0378   21.4520 C.3     1  UNL1        0.0000
     79 H           6.4371    6.6711   21.6896 H       1  UNL1        0.0000
     80 H           7.6986    7.7993   22.1897 H       1  UNL1        0.0000
     81 C           7.4395    7.6632   20.0598 C.3     1  UNL1        0.0000
     82 H           6.7378    8.4996   20.0258 H       1  UNL1        0.0000
     83 H           7.1108    6.9202   19.3308 H       1  UNL1        0.0000
     84 C           8.8418    8.1394   19.6926 C.3     1  UNL1        0.0000
     85 H           9.1460    8.9305   20.3816 H       1  UNL1        0.0000
     86 H           8.8377    8.5588   18.6839 H       1  UNL1        0.0000
     87 C           9.8274    6.9759   19.7755 C.3     1  UNL1        0.0000
     88 H           9.5115    6.1906   19.0880 H       1  UNL1        0.0000
     89 H          10.8281    7.2913   19.4830 H       1  UNL1        0.0000
     90 C          13.9271    0.4707   22.8999 C.3     1  UNL1        0.0000
     91 H          14.7776    0.5008   23.5837 H       1  UNL1        0.0000
     92 C          12.9346   -0.5587   23.4599 C.3     1  UNL1        0.0000
     93 H          12.5765   -0.2237   24.4329 H       1  UNL1        0.0000
     94 H          12.0738   -0.6156   22.7941 H       1  UNL1        0.0000
     95 C          13.5861   -1.9348   23.5784 C.3     1  UNL1        0.0000
     96 H          14.4128   -1.8848   24.2898 H       1  UNL1        0.0000
     97 H          12.8603   -2.6559   23.9591 H       1  UNL1        0.0000
     98 C          14.1160   -2.3956   22.2240 C.3     1  UNL1        0.0000
     99 H          14.5954   -3.3718   22.3241 H       1  UNL1        0.0000
    100 H          13.2830   -2.4994   21.5269 H       1  UNL1        0.0000
    101 C          15.1107   -1.3778   21.6732 C.3     1  UNL1        0.0000
    102 H          15.4810   -1.7091   20.7032 H       1  UNL1        0.0000
    103 H          15.9617   -1.3092   22.3542 H       1  UNL1        0.0000
    104 C          14.4415   -0.0119   21.5379 C.3     1  UNL1        0.0000
    105 H          13.5967   -0.0912   20.8544 H       1  UNL1        0.0000
    106 H          15.1232    0.7319   21.1184 H       1  UNL1        0.0000
    107 C          16.0529    2.8228   24.5775 C.3     1  UNL1        0.0000
    108 H          15.3472    2.0692   24.9413 H       1  UNL1        0.0000
    109 C          17.1528    2.1206   23.7746 C.3     1  UNL1        0.0000
    110 H          17.8747    2.8699   23.4492 H       1  UNL1        0.0000
    111 H          16.7254    1.6802   22.8756 H       1  UNL1        0.0000
    112 C          17.8545    1.0623   24.6221 C.3     1  UNL1        0.0000
    113 H          17.1350    0.2993   24.9281 H       1  UNL1        0.0000
    114 H          18.6343    0.5709   24.0372 H       1  UNL1        0.0000
    115 C          18.4643    1.7043   25.8648 C.3     1  UNL1        0.0000
    116 H          19.2269    2.4227   25.5595 H       1  UNL1        0.0000
    117 H          18.9468    0.9433   26.4824 H       1  UNL1        0.0000
    118 C          17.3893    2.4258   26.6728 C.3     1  UNL1        0.0000
    119 H          17.8413    2.9029   27.5447 H       1  UNL1        0.0000
    120 H          16.6581    1.6984   27.0307 H       1  UNL1        0.0000
    121 C          16.6796    3.4740   25.8173 C.3     1  UNL1        0.0000
    122 H          15.9023    3.9695   26.3973 H       1  UNL1        0.0000
    123 H          17.3929    4.2328   25.4962 H       1  UNL1        0.0000
    124 C          13.3834    6.8427   26.5111 C.3     1  UNL1        0.0000
    125 H          13.6221    6.1691   27.3388 H       1  UNL1        0.0000
    126 C          14.6244    7.6977   26.2273 C.3     1  UNL1        0.0000
    127 H          14.4084    8.3619   25.3899 H       1  UNL1        0.0000
    128 H          15.4477    7.0495   25.9279 H       1  UNL1        0.0000
    129 C          15.0148    8.5201   27.4529 C.3     1  UNL1        0.0000
    130 H          15.2791    7.8480   28.2720 H       1  UNL1        0.0000
    131 H          15.8893    9.1332   27.2262 H       1  UNL1        0.0000
    132 C          13.8562    9.4111   27.8889 C.3     1  UNL1        0.0000
    133 H          13.6212   10.1138   27.0876 H       1  UNL1        0.0000
    134 H          14.1387    9.9883   28.7722 H       1  UNL1        0.0000
    135 C          12.6256    8.5626   28.1909 C.3     1  UNL1        0.0000
    136 H          12.8467    7.8894   29.0214 H       1  UNL1        0.0000
    137 H          11.7955    9.2050   28.4918 H       1  UNL1        0.0000
    138 C          12.2299    7.7424   26.9654 C.3     1  UNL1        0.0000
    139 H          11.9631    8.4117   26.1477 H       1  UNL1        0.0000
    140 H          11.3594    7.1265   27.1899 H       1  UNL1        0.0000
    141 C           9.5812    2.8671   24.9754 C.3     1  UNL1        0.0000
    142 H           9.8606    2.2477   25.8329 H       1  UNL1        0.0000
    143 C           8.9227    1.9508   23.9375 C.3     1  UNL1        0.0000
    144 H           8.6407    2.5467   23.0695 H       1  UNL1        0.0000
    145 H           9.6455    1.2063   23.6036 H       1  UNL1        0.0000
    146 C           7.6860    1.2706   24.5194 C.3     1  UNL1        0.0000
    147 H           7.2213    0.6343   23.7638 H       1  UNL1        0.0000
    148 H           7.9806    0.6358   25.3576 H       1  UNL1        0.0000
    149 C           6.6846    2.3133   25.0062 C.3     1  UNL1        0.0000
    150 H           6.3545    2.9181   24.1598 H       1  UNL1        0.0000
    151 H           5.8074    1.8205   25.4314 H       1  UNL1        0.0000
    152 C           7.3310    3.2191   26.0494 C.3     1  UNL1        0.0000
    153 H           7.6206    2.6216   26.9160 H       1  UNL1        0.0000
    154 H           6.6136    3.9708   26.3848 H       1  UNL1        0.0000
    155 C           8.5670    3.9025   25.4696 C.3     1  UNL1        0.0000
    156 H           8.2714    4.5386   24.6354 H       1  UNL1        0.0000
    157 H           9.0370    4.5367   26.2205 H       1  UNL1        0.0000
@<TRIPOS>BOND
     1    52    50    1
     2    48    47    1
     3    49    47    1
     4    47    50    1
     5    47    44    1
     6    50    51    1
     7    50    53    1
     8    55    53    1
     9    53    54    1
    10    53    39    1
    11    45    44    1
    12    44    46    1
    13    44    41    1
    14    62    61    1
    15    42    41    1
    16    86    84    1
    17    41    39    1
    18    41    43    1
    19    39    40    1
    20    39    15    1
    21    88    87    1
    22    63    61    1
    23    83    81    1
    24    61    58    1
    25    61    64    1
    26    89    87    1
    27    60    58    1
    28     2    15    1
    29    84    87    1
    30    84    81    1
    31    84    85    1
    32    87    73    1
    33    65    64    1
    34    15     5    1
    35    15     6    1
    36    82    81    1
    37    81    78    1
    38    58    59    1
    39    58    56    1
    40     5    17    1
    41    64    66    1
    42    64    67    1
    43     1    14    1
    44    25    24    1
    45   102   101    1
    46    32    30    1
    47    77    75    1
    48   105   104    1
    49    38    36    1
    50   106   104    1
    51    73    17    1
    52    73    75    1
    53    73    74    1
    54    57    56    1
    55    17     7    1
    56    17     9    1
    57    78    75    1
    58    78    79    1
    59    78    80    1
    60    56    16    1
    61    56    70    1
    62    28    27    1
    63    68    67    1
    64   100    98    1
    65    24    26    1
    66    24    27    1
    67    24    22    1
    68    75    76    1
    69     6    18    1
    70   104   101    1
    71   104    90    1
    72     7    16    1
    73   101    98    1
    74   101   103    1
    75    67    69    1
    76    67    70    1
    77    14    22    1
    78    14     3    1
    79    14     4    1
    80    30    27    1
    81    30    31    1
    82    30    33    1
    83    36    22    1
    84    36    33    1
    85    36    37    1
    86    27    29    1
    87    98    99    1
    88    98    95    1
    89    22    23    1
    90    16     3    1
    91    16     8    1
    92    35    33    1
    93    10    18    1
    94    10    19    1
    95    70    71    1
    96    70    72    1
    97    33    34    1
    98    18    90    1
    99    18    11    1
   100    94    92    1
   101     4    19    1
   102     9    21    1
   103   111   109    1
   104    90    92    1
   105    90    91    1
   106   144   143    1
   107   110   109    1
   108    92    95    1
   109    92    93    1
   110    19    12    1
   111    19   107    1
   112    95    97    1
   113    95    96    1
   114   145   143    1
   115   147   146    1
   116   109   107    1
   117   109   112    1
   118     8    20    1
   119   143   146    1
   120   143   141    1
   121   114   112    1
   122    11    21    1
   123   150   149    1
   124    21   141    1
   125    21    13    1
   126   146   149    1
   127   146   148    1
   128    12    20    1
   129   107   108    1
   130   107   121    1
   131   112   113    1
   132   112   115    1
   133   156   155    1
   134    20    13    1
   135    20   124    1
   136   141   155    1
   137   141   142    1
   138   149   151    1
   139   149   152    1
   140   127   126    1
   141   155   152    1
   142   155   157    1
   143   123   121    1
   144   116   115    1
   145   121   122    1
   146   121   118    1
   147   115   117    1
   148   115   118    1
   149   128   126    1
   150   152   154    1
   151   152   153    1
   152   139   138    1
   153   126   124    1
   154   126   129    1
   155   124   138    1
   156   124   125    1
   157   118   120    1
   158   118   119    1
   159   138   140    1
   160   138   135    1
   161   133   132    1
   162   131   129    1
   163   129   132    1
   164   129   130    1
   165   132   135    1
   166   132   134    1
   167   135   137    1
   168   135   136    1
