@<TRIPOS>MOLECULE
4,7
 73 78 0 0 0
SMALL
GASTEIGER

@<TRIPOS>ATOM
      1 SI          5.1263    8.9802    3.2148 Si      1  UNL1        0.0000
      2 SI          2.0828    9.1005    3.4993 Si      1  UNL1        0.0000
      3 SI          2.2708    8.3128    6.4452 Si      1  UNL1        0.0000
      4 O           5.3389    9.8802    4.5202 O.3     1  UNL1        0.0000
      5 O           3.5393    8.7141    2.8973 O.3     1  UNL1        0.0000
      6 O           1.7829    8.3030    4.8822 O.3     1  UNL1        0.0000
      7 O           3.7004    9.0150    6.6114 O.3     1  UNL1        0.0000
      8 C           5.8510    7.2524    3.5232 C.ar    1  UNL1        0.0000
      9 C           6.7743    6.6319    2.6888 C.ar    1  UNL1        0.0000
     10 H           7.1345    7.1576    1.8161 H       1  UNL1        0.0000
     11 C           7.2353    5.3552    2.9622 C.ar    1  UNL1        0.0000
     12 H           7.9533    4.8876    2.3036 H       1  UNL1        0.0000
     13 C           6.7728    4.6735    4.0755 C.ar    1  UNL1        0.0000
     14 H           7.1258    3.6738    4.2841 H       1  UNL1        0.0000
     15 C           5.8564    5.2784    4.9207 C.ar    1  UNL1        0.0000
     16 H           5.4866    4.7511    5.7891 H       1  UNL1        0.0000
     17 C           5.4088    6.5592    4.6473 C.ar    1  UNL1        0.0000
     18 H           4.6980    7.0396    5.3095 H       1  UNL1        0.0000
     19 C           5.8645    9.9051    1.7411 C.ar    1  UNL1        0.0000
     20 C           5.7747    9.4032    0.4473 C.ar    1  UNL1        0.0000
     21 H           5.2625    8.4664    0.2846 H       1  UNL1        0.0000
     22 C           6.3207   10.0894   -0.6228 C.ar    1  UNL1        0.0000
     23 H           6.2411    9.6858   -1.6222 H       1  UNL1        0.0000
     24 C           6.9694   11.2953   -0.4142 C.ar    1  UNL1        0.0000
     25 H           7.3969   11.8322   -1.2488 H       1  UNL1        0.0000
     26 C           7.0636   11.8125    0.8671 C.ar    1  UNL1        0.0000
     27 H           7.5633   12.7564    1.0329 H       1  UNL1        0.0000
     28 C           6.5160   11.1203    1.9324 C.ar    1  UNL1        0.0000
     29 H           6.5757   11.5237    2.9356 H       1  UNL1        0.0000
     30 C           0.8310    8.4448    2.2584 C.ar    1  UNL1        0.0000
     31 C           1.0940    8.4861    0.8939 C.ar    1  UNL1        0.0000
     32 H           2.0489    8.8636    0.5601 H       1  UNL1        0.0000
     33 C           0.1606    8.0461   -0.0270 C.ar    1  UNL1        0.0000
     34 H           0.3832    8.0821   -1.0841 H       1  UNL1        0.0000
     35 C          -1.0622    7.5605    0.4053 C.ar    1  UNL1        0.0000
     36 H          -1.7940    7.2168   -0.3118 H       1  UNL1        0.0000
     37 C          -1.3424    7.5171    1.7607 C.ar    1  UNL1        0.0000
     38 H          -2.2955    7.1390    2.1027 H       1  UNL1        0.0000
     39 C          -0.4029    7.9590    2.6747 C.ar    1  UNL1        0.0000
     40 H          -0.6165    7.9239    3.7323 H       1  UNL1        0.0000
     41 C           1.9771   10.9660    3.7815 C.ar    1  UNL1        0.0000
     42 C           2.8065   11.8449    3.0869 C.ar    1  UNL1        0.0000
     43 H           3.5188   11.4475    2.3765 H       1  UNL1        0.0000
     44 C           2.7368   13.2103    3.2987 C.ar    1  UNL1        0.0000
     45 H           3.3953   13.8737    2.7562 H       1  UNL1        0.0000
     46 C           1.8317   13.7248    4.2115 C.ar    1  UNL1        0.0000
     47 H           1.7832   14.7898    4.3852 H       1  UNL1        0.0000
     48 C           0.9974   12.8681    4.9090 C.ar    1  UNL1        0.0000
     49 H           0.2955   13.2616    5.6301 H       1  UNL1        0.0000
     50 C           1.0677   11.5044    4.6908 C.ar    1  UNL1        0.0000
     51 H           0.4149   10.8400    5.2392 H       1  UNL1        0.0000
     52 C           1.0401    9.3072    7.4890 C.ar    1  UNL1        0.0000
     53 C          -0.2913    8.9272    7.6273 C.ar    1  UNL1        0.0000
     54 H          -0.6331    8.0260    7.1390 H       1  UNL1        0.0000
     55 C          -1.1760    9.6869    8.3722 C.ar    1  UNL1        0.0000
     56 H          -2.2078    9.3792    8.4652 H       1  UNL1        0.0000
     57 C          -0.7397   10.8435    8.9969 C.ar    1  UNL1        0.0000
     58 H          -1.4303   11.4396    9.5760 H       1  UNL1        0.0000
     59 C           0.5840   11.2328    8.8758 C.ar    1  UNL1        0.0000
     60 H           0.9287   12.1359    9.3588 H       1  UNL1        0.0000
     61 C           1.4645   10.4687    8.1311 C.ar    1  UNL1        0.0000
     62 H           2.5008   10.7772    8.0284 H       1  UNL1        0.0000
     63 C           2.3872    6.4864    6.9462 C.ar    1  UNL1        0.0000
     64 C           2.3622    5.4723    5.9934 C.ar    1  UNL1        0.0000
     65 H           2.2371    5.7364    4.9540 H       1  UNL1        0.0000
     66 C           2.4942    4.1445    6.3604 C.ar    1  UNL1        0.0000
     67 H           2.4756    3.3721    5.6049 H       1  UNL1        0.0000
     68 C           2.6520    3.8052    7.6937 C.ar    1  UNL1        0.0000
     69 H           2.7578    2.7694    7.9827 H       1  UNL1        0.0000
     70 C           2.6683    4.8003    8.6570 C.ar    1  UNL1        0.0000
     71 H           2.7837    4.5417    9.7000 H       1  UNL1        0.0000
     72 C           2.5351    6.1255    8.2824 C.ar    1  UNL1        0.0000
     73 H           2.5379    6.8987    9.0387 H       1  UNL1        0.0000
@<TRIPOS>BOND
     1    23    22    1
     2    25    24    1
     3    34    33    1
     4    22    24   ar
     5    22    20   ar
     6    24    26   ar
     7    36    35    1
     8    33    35   ar
     9    33    31   ar
    10    21    20    1
    11    35    37   ar
    12    20    19   ar
    13    32    31    1
    14    26    27    1
    15    26    28   ar
    16    31    30   ar
    17    19    28   ar
    18    19     1    1
    19    37    38    1
    20    37    39   ar
    21    10     9    1
    22    28    29    1
    23    30    39   ar
    24    30     2    1
    25    12    11    1
    26    43    42    1
    27    39    40    1
    28     9    11   ar
    29     9     8   ar
    30    45    44    1
    31     5     1    1
    32     5     2    1
    33    11    13   ar
    34    42    44   ar
    35    42    41   ar
    36     1     8    1
    37     1     4    1
    38    44    46   ar
    39     2    41    1
    40     2     6    1
    41     8    17   ar
    42    41    50   ar
    43    13    14    1
    44    13    15   ar
    45    46    47    1
    46    46    48   ar
    47    17    15   ar
    48    17    18    1
    49    50    48   ar
    50    50    51    1
    51     6     3    1
    52    48    49    1
    53    15    16    1
    54    65    64    1
    55    67    66    1
    56    64    66   ar
    57    64    63   ar
    58    66    68   ar
    59     3     7    1
    60     3    63    1
    61     3    52    1
    62    63    72   ar
    63    54    53    1
    64    52    53   ar
    65    52    61   ar
    66    53    55   ar
    67    68    69    1
    68    68    70   ar
    69    62    61    1
    70    61    59   ar
    71    72    70   ar
    72    72    73    1
    73    55    56    1
    74    55    57   ar
    75    70    71    1
    76    59    57   ar
    77    59    60    1
    78    57    58    1
