@<TRIPOS>MOLECULE
8,13
 118 127 0 0 0
SMALL
GASTEIGER

@<TRIPOS>ATOM
      1 SI         11.8642    4.0801   -7.8895 Si      1  UNL1        0.0000
      2 SI          9.4449    5.9474   -7.0134 Si      1  UNL1        0.0000
      3 SI         11.3838    7.1867   -5.0647 Si      1  UNL1        0.0000
      4 SI         12.7409    6.1442   -9.9010 Si      1  UNL1        0.0000
      5 SI         10.2696    7.9526   -9.0621 Si      1  UNL1        0.0000
      6 SI         12.2103    9.1078   -7.1321 Si      1  UNL1        0.0000
      7 SI         14.6378    7.6621   -8.3923 Si      1  UNL1        0.0000
      8 O          12.6770    3.8466   -6.5643 O.3     1  UNL1        0.0000
      9 O          10.4419    4.8272   -7.5779 O.3     1  UNL1        0.0000
     10 O          10.0029    6.5312   -5.6113 O.3     1  UNL1        0.0000
     11 O          12.6275    6.1964   -5.4186 O.3     1  UNL1        0.0000
     12 H          12.4034    5.2774   -5.6787 H       1  UNL1        0.0000
     13 O          15.4388    6.6038   -7.5747 O.3     1  UNL1        0.0000
     14 O          12.9453    5.0437   -8.7316 O.3     1  UNL1        0.0000
     15 O           9.2567    7.1387   -8.0962 O.3     1  UNL1        0.0000
     16 O          11.6370    8.6622   -5.6727 O.3     1  UNL1        0.0000
     17 O          11.3279    6.9122   -9.6846 O.3     1  UNL1        0.0000
     18 O          11.0295    9.1225   -8.2480 O.3     1  UNL1        0.0000
     19 O          13.3190    8.0116   -7.4638 O.3     1  UNL1        0.0000
     20 O          14.0277    7.1007   -9.8254 O.3     1  UNL1        0.0000
     21 C          11.2233    2.6935   -9.0418 C.3     1  UNL1        0.0000
     22 H          10.8671    1.8697   -8.4161 H       1  UNL1        0.0000
     23 C          10.0345    3.1861   -9.8958 C.3     1  UNL1        0.0000
     24 H           9.1006    3.0472   -9.3563 H       1  UNL1        0.0000
     25 H          10.1290    4.2521  -10.0984 H       1  UNL1        0.0000
     26 C          10.0656    2.3835  -11.2097 C.3     1  UNL1        0.0000
     27 H           9.1344    1.8423  -11.3758 H       1  UNL1        0.0000
     28 H          10.2122    3.0503  -12.0601 H       1  UNL1        0.0000
     29 C          11.2516    1.4235  -11.0835 C.3     1  UNL1        0.0000
     30 H          11.7378    1.2366  -12.0410 H       1  UNL1        0.0000
     31 H          10.9161    0.4658  -10.6810 H       1  UNL1        0.0000
     32 C          12.1803    2.0987  -10.0765 C.3     1  UNL1        0.0000
     33 H          12.7553    2.8912  -10.5548 H       1  UNL1        0.0000
     34 H          12.8698    1.3813   -9.6369 H       1  UNL1        0.0000
     35 C           7.7232    5.2454   -6.6735 C.3     1  UNL1        0.0000
     36 H           7.7975    4.4535   -5.9237 H       1  UNL1        0.0000
     37 C           6.7407    6.2922   -6.1402 C.3     1  UNL1        0.0000
     38 H           6.9418    6.5487   -5.1023 H       1  UNL1        0.0000
     39 H           6.8081    7.1993   -6.7403 H       1  UNL1        0.0000
     40 C           5.3827    5.6298   -6.3444 C.3     1  UNL1        0.0000
     41 H           4.5535    6.3345   -6.2896 H       1  UNL1        0.0000
     42 H           5.2311    4.8615   -5.5842 H       1  UNL1        0.0000
     43 C           5.5066    4.9859   -7.7279 C.3     1  UNL1        0.0000
     44 H           5.1762    5.6890   -8.4928 H       1  UNL1        0.0000
     45 H           4.8900    4.0911   -7.8116 H       1  UNL1        0.0000
     46 C           7.0052    4.6721   -7.9082 C.3     1  UNL1        0.0000
     47 H           7.3834    5.1397   -8.8158 H       1  UNL1        0.0000
     48 H           7.1830    3.6007   -7.9901 H       1  UNL1        0.0000
     49 C          10.9445    7.4961   -3.2378 C.3     1  UNL1        0.0000
     50 H          10.2556    8.3473   -3.2376 H       1  UNL1        0.0000
     51 C          12.0444    7.8355   -2.2334 C.3     1  UNL1        0.0000
     52 H          12.8466    7.1001   -2.2793 H       1  UNL1        0.0000
     53 H          12.4698    8.8223   -2.4040 H       1  UNL1        0.0000
     54 C          11.3272    7.7222   -0.8893 C.3     1  UNL1        0.0000
     55 H          12.0178    7.6062   -0.0541 H       1  UNL1        0.0000
     56 H          10.7347    8.6208   -0.7148 H       1  UNL1        0.0000
     57 C          10.4038    6.5063   -1.0535 C.3     1  UNL1        0.0000
     58 H           9.4525    6.6680   -0.5483 H       1  UNL1        0.0000
     59 H          10.8595    5.6188   -0.6130 H       1  UNL1        0.0000
     60 C          10.2162    6.3201   -2.5716 C.3     1  UNL1        0.0000
     61 H           9.1682    6.3019   -2.8603 H       1  UNL1        0.0000
     62 H          10.6537    5.3792   -2.9016 H       1  UNL1        0.0000
     63 C          12.5185    5.5407  -11.6914 C.3     1  UNL1        0.0000
     64 H          11.7795    4.7369  -11.7102 H       1  UNL1        0.0000
     65 C          13.7360    5.0798  -12.4886 C.3     1  UNL1        0.0000
     66 H          14.5483    5.7880  -12.3324 H       1  UNL1        0.0000
     67 H          14.0766    4.0892  -12.1951 H       1  UNL1        0.0000
     68 C          13.2800    5.1140  -13.9550 C.3     1  UNL1        0.0000
     69 H          14.0950    5.4111  -14.6144 H       1  UNL1        0.0000
     70 H          12.9456    4.1254  -14.2715 H       1  UNL1        0.0000
     71 C          12.1117    6.1160  -14.0063 C.3     1  UNL1        0.0000
     72 H          12.2886    6.9100  -14.7309 H       1  UNL1        0.0000
     73 H          11.1908    5.6065  -14.2928 H       1  UNL1        0.0000
     74 C          11.9869    6.6678  -12.5826 C.3     1  UNL1        0.0000
     75 H          10.9678    6.9467  -12.3277 H       1  UNL1        0.0000
     76 H          12.6182    7.5478  -12.4598 H       1  UNL1        0.0000
     77 C           9.2188    8.7428  -10.4182 C.3     1  UNL1        0.0000
     78 H           9.8562    9.1201  -11.2233 H       1  UNL1        0.0000
     79 C           8.1799    7.8025  -11.0307 C.3     1  UNL1        0.0000
     80 H           8.6245    7.0575  -11.6890 H       1  UNL1        0.0000
     81 H           7.6618    7.2782  -10.2280 H       1  UNL1        0.0000
     82 C           7.2102    8.7322  -11.7703 C.3     1  UNL1        0.0000
     83 H           7.5118    8.8367  -12.8131 H       1  UNL1        0.0000
     84 H           6.1942    8.3387  -11.7584 H       1  UNL1        0.0000
     85 C           7.3070   10.0907  -11.0491 C.3     1  UNL1        0.0000
     86 H           6.3431   10.4061  -10.6512 H       1  UNL1        0.0000
     87 H           7.6460   10.8613  -11.7422 H       1  UNL1        0.0000
     88 C           8.3375    9.8942   -9.9298 C.3     1  UNL1        0.0000
     89 H           7.8404    9.5955   -9.0071 H       1  UNL1        0.0000
     90 H           8.9129   10.7951   -9.7275 H       1  UNL1        0.0000
     91 C          12.7117   10.9255   -6.9819 C.3     1  UNL1        0.0000
     92 H          13.2010   11.2648   -7.8990 H       1  UNL1        0.0000
     93 C          13.6297   11.2510   -5.8050 C.3     1  UNL1        0.0000
     94 H          13.2638   10.7243   -4.9239 H       1  UNL1        0.0000
     95 H          14.6564   10.9409   -5.9875 H       1  UNL1        0.0000
     96 C          13.5068   12.7702   -5.6098 C.3     1  UNL1        0.0000
     97 H          14.3435   13.2850   -6.0829 H       1  UNL1        0.0000
     98 H          13.5165   13.0319   -4.5521 H       1  UNL1        0.0000
     99 C          12.1802   13.1734   -6.2808 C.3     1  UNL1        0.0000
    100 H          12.3761   13.7965   -7.1543 H       1  UNL1        0.0000
    101 H          11.5388   13.7402   -5.6067 H       1  UNL1        0.0000
    102 C          11.5267   11.8580   -6.7141 C.3     1  UNL1        0.0000
    103 H          10.9278   11.4468   -5.9020 H       1  UNL1        0.0000
    104 H          10.8865   11.9738   -7.5859 H       1  UNL1        0.0000
    105 C          15.5632    9.2552   -8.8294 C.3     1  UNL1        0.0000
    106 H          15.4868    9.9301   -7.9727 H       1  UNL1        0.0000
    107 C          15.0416    9.9899  -10.0639 C.3     1  UNL1        0.0000
    108 H          14.9541    9.2822  -10.8884 H       1  UNL1        0.0000
    109 H          14.0635   10.4396   -9.9008 H       1  UNL1        0.0000
    110 C          16.1278   11.0301  -10.3691 C.3     1  UNL1        0.0000
    111 H          15.8884   11.9777   -9.8853 H       1  UNL1        0.0000
    112 H          16.2122   11.2182  -11.4393 H       1  UNL1        0.0000
    113 C          17.4320   10.4503   -9.7859 C.3     1  UNL1        0.0000
    114 H          18.2008   10.3350  -10.5495 H       1  UNL1        0.0000
    115 H          17.8281   11.1127   -9.0157 H       1  UNL1        0.0000
    116 C          17.0426    9.0995   -9.1718 C.3     1  UNL1        0.0000
    117 H          17.1582    8.3070   -9.9095 H       1  UNL1        0.0000
    118 H          17.6449    8.8427   -8.3029 H       1  UNL1        0.0000
@<TRIPOS>BOND
     1    72    71    1
     2    69    68    1
     3    73    71    1
     4    70    68    1
     5    71    68    1
     6    71    74    1
     7    68    65    1
     8    83    82    1
     9    74    76    1
    10    74    75    1
    11    74    63    1
    12    65    66    1
    13    65    67    1
    14    65    63    1
    15    28    26    1
    16    30    29    1
    17    82    84    1
    18    82    85    1
    19    82    79    1
    20    87    85    1
    21    64    63    1
    22    63     4    1
    23    80    79    1
    24   112   110    1
    25    27    26    1
    26    78    77    1
    27    26    29    1
    28    26    23    1
    29    29    31    1
    30    29    32    1
    31    85    86    1
    32    85    88    1
    33    79    77    1
    34    79    81    1
    35   108   107    1
    36    33    32    1
    37   114   113    1
    38    77    88    1
    39    77     5    1
    40   110   107    1
    41   110   111    1
    42   110   113    1
    43    25    23    1
    44    32    34    1
    45    32    21    1
    46   107   109    1
    47   107   105    1
    48    88    90    1
    49    88    89    1
    50   117   116    1
    51     4    20    1
    52     4    17    1
    53     4    14    1
    54    23    24    1
    55    23    21    1
    56    20     7    1
    57   113   116    1
    58   113   115    1
    59    17     5    1
    60   116   105    1
    61   116   118    1
    62     5    18    1
    63     5    15    1
    64    21    22    1
    65    21     1    1
    66   105     7    1
    67   105   106    1
    68    47    46    1
    69    14     1    1
    70    44    43    1
    71     7    13    1
    72     7    19    1
    73    18     6    1
    74    15     2    1
    75    48    46    1
    76    46    43    1
    77    46    35    1
    78    92    91    1
    79     1     9    1
    80     1     8    1
    81    45    43    1
    82    43    40    1
    83   104   102    1
    84     9     2    1
    85    19     6    1
    86   100    99    1
    87     6    91    1
    88     6    16    1
    89     2    35    1
    90     2    10    1
    91    91   102    1
    92    91    93    1
    93    39    37    1
    94   102    99    1
    95   102   103    1
    96    35    37    1
    97    35    36    1
    98    40    41    1
    99    40    37    1
   100    40    42    1
   101    99    96    1
   102    99   101    1
   103    37    38    1
   104    97    96    1
   105    95    93    1
   106    93    96    1
   107    93    94    1
   108    12    11    1
   109    16     3    1
   110    10     3    1
   111    96    98    1
   112    11     3    1
   113     3    49    1
   114    49    50    1
   115    49    60    1
   116    49    51    1
   117    62    60    1
   118    61    60    1
   119    60    57    1
   120    53    51    1
   121    52    51    1
   122    51    54    1
   123    57    54    1
   124    57    59    1
   125    57    58    1
   126    54    56    1
   127    54    55    1
