@<TRIPOS>MOLECULE
1,2
 14 13 0 0 0
SMALL
GASTEIGER

@<TRIPOS>ATOM
      1 O          15.8424   10.1560    6.1628 O.2     1  UNL1       -0.2932
      2 O          14.9263   10.7109    3.5795 O.3     1  UNL1       -0.2198
      3 C          17.0258   11.8297    7.3663 C.3     1  UNL1       -0.0022
      4 C          16.2597   11.3419    6.1558 C.2     1  UNL1        0.1520
      5 C          16.0492   12.2002    5.0686 C.2     1  UNL1       -0.0044
      6 C          15.4304   11.8313    3.8702 C.3     1  UNL1        0.1583
      7 C          15.4054   12.8628    2.7566 C.3     1  UNL1       -0.0258
      8 H          16.3339   12.2878    8.0746 H       1  UNL1        0.0309
      9 H          17.5095   10.9851    7.8557 H       1  UNL1        0.0309
     10 H          17.7735   12.5660    7.0860 H       1  UNL1        0.0309
     11 H          16.4622   13.1960    5.1326 H       1  UNL1        0.0637
     12 H          14.8530   12.4587    1.9111 H       1  UNL1        0.0263
     13 H          14.9293   13.7787    3.0979 H       1  UNL1        0.0263
     14 H          16.4200   13.0952    2.4371 H       1  UNL1        0.0263
@<TRIPOS>BOND
     1    12     7    1
     2    14     7    1
     3     7    13    1
     4     7     6    1
     5     2     6    1
     6     6     5    1
     7     5    11    1
     8     5     4    2
     9     4     1    1
    10     4     3    1
    11    10     3    1
    12     3     9    1
    13     3     8    1
