@<TRIPOS>MOLECULE
1,2
 24 23 0 0 0
SMALL
GASTEIGER

@<TRIPOS>ATOM
      1 O           5.9501    9.5028    4.4553 O.2     1  UNL1       -0.2465
      2 O           4.9848    8.4692    2.8000 O.2     1  UNL1       -0.2465
      3 C           5.7600    9.4008    3.2127 C.3     1  UNL1        0.4928
      4 N           6.3406   10.2401    2.3371 N.3     1  UNL1       -0.2121
      5 C           7.1471   11.3602    2.8171 C.3     1  UNL1        0.0123
      6 H           7.4928   11.8895    1.9244 H       1  UNL1        0.0460
      7 C           8.3719   10.8692    3.5894 C.3     1  UNL1       -0.0495
      8 H           8.9651   10.1974    2.9728 H       1  UNL1        0.0245
      9 H           8.0550   10.3388    4.4830 H       1  UNL1        0.0245
     10 H           8.9885   11.7171    3.8781 H       1  UNL1        0.0245
     11 C           6.2968   12.3159    3.6558 C.3     1  UNL1       -0.0495
     12 H           5.4443   12.6708    3.0810 H       1  UNL1        0.0245
     13 H           6.8937   13.1715    3.9623 H       1  UNL1        0.0245
     14 H           5.9250   11.8078    4.5423 H       1  UNL1        0.0245
     15 C           6.1207   10.0463    0.9085 C.3     1  UNL1        0.0123
     16 H           5.4210    9.2060    0.8408 H       1  UNL1        0.0460
     17 C           7.4231    9.6566    0.2083 C.3     1  UNL1       -0.0495
     18 H           7.8563    8.7818    0.6868 H       1  UNL1        0.0245
     19 H           8.1466   10.4683    0.2411 H       1  UNL1        0.0245
     20 H           7.2222    9.4185   -0.8330 H       1  UNL1        0.0245
     21 C           5.4780   11.2724    0.2610 C.3     1  UNL1       -0.0495
     22 H           4.6036   11.5823    0.8271 H       1  UNL1        0.0245
     23 H           5.1673   11.0235   -0.7506 H       1  UNL1        0.0245
     24 H           6.1732   12.1069    0.2043 H       1  UNL1        0.0245
@<TRIPOS>BOND
     1    20    17    1
     2    23    21    1
     3    24    21    1
     4    17    19    1
     5    17    18    1
     6    17    15    1
     7    21    22    1
     8    21    15    1
     9    16    15    1
    10    15     4    1
    11     6     5    1
    12     4     5    1
    13     4     3    1
    14     2     3    1
    15     5     7    1
    16     5    11    1
    17     8     7    1
    18    12    11    1
    19     3     1    1
    20     7    10    1
    21     7     9    1
    22    11    13    1
    23    11    14    1
