@<TRIPOS>MOLECULE
1,2
 24 23 0 0 0
SMALL
GASTEIGER

@<TRIPOS>ATOM
      1 O           6.1066    6.8840    4.8421 O.2     1  UNL1       -0.2465
      2 O           5.0333    7.8273    6.4844 O.2     1  UNL1       -0.2465
      3 C           5.9768    7.0587    6.0835 C.3     1  UNL1        0.4928
      4 N           6.7877    6.4634    6.9749 N.3     1  UNL1       -0.2121
      5 C           6.6014    6.7313    8.3963 C.3     1  UNL1        0.0123
      6 H           5.6908    7.3376    8.4539 H       1  UNL1        0.0460
      7 C           7.7673    7.5482    8.9539 C.3     1  UNL1       -0.0495
      8 H           7.8957    8.4563    8.3696 H       1  UNL1        0.0245
      9 H           8.6947    6.9800    8.9290 H       1  UNL1        0.0245
     10 H           7.5618    7.8247    9.9847 H       1  UNL1        0.0245
     11 C           6.3816    5.4426    9.1877 C.3     1  UNL1       -0.0495
     12 H           5.6157    4.8365    8.7109 H       1  UNL1        0.0245
     13 H           6.0547    5.6897   10.1945 H       1  UNL1        0.0245
     14 H           7.2948    4.8568    9.2641 H       1  UNL1        0.0245
     15 C           7.8625    5.5844    6.5198 C.3     1  UNL1        0.0123
     16 H           8.3801    5.2443    7.4215 H       1  UNL1        0.0460
     17 C           8.8625    6.3440    5.6471 C.3     1  UNL1       -0.0495
     18 H           9.2688    7.1956    6.1885 H       1  UNL1        0.0245
     19 H           8.3692    6.7037    4.7480 H       1  UNL1        0.0245
     20 H           9.6802    5.6850    5.3649 H       1  UNL1        0.0245
     21 C           7.2905    4.3661    5.7941 C.3     1  UNL1       -0.0495
     22 H           6.5995    3.8298    6.4404 H       1  UNL1        0.0245
     23 H           8.0959    3.6943    5.5070 H       1  UNL1        0.0245
     24 H           6.7550    4.6818    4.9025 H       1  UNL1        0.0245
@<TRIPOS>BOND
     1    19    17    1
     2     1     3    1
     3    24    21    1
     4    20    17    1
     5    23    21    1
     6    17    18    1
     7    17    15    1
     8    21    22    1
     9    21    15    1
    10     3     2    1
    11     3     4    1
    12    15     4    1
    13    15    16    1
    14     4     5    1
    15     8     7    1
    16     5     6    1
    17     5     7    1
    18     5    11    1
    19    12    11    1
    20     9     7    1
    21     7    10    1
    22    11    14    1
    23    11    13    1
