@<TRIPOS>MOLECULE
2,3
 109 114 0 0 0
SMALL
GASTEIGER

@<TRIPOS>ATOM
      1 SI         13.8466    8.5518    4.8769 Si      1  UNL1        0.0000
      2 O          14.4283   11.8923    5.6182 O.3     1  UNL1        0.0000
      3 O          11.5951   12.0177    4.8352 O.3     1  UNL1        0.0000
      4 O          12.6738    9.5684    5.4379 O.3     1  UNL1        0.0000
      5 O          15.1216    8.8322    5.8636 O.3     1  UNL1        0.0000
      6 C          14.9678   12.3631    3.3406 C.ar    1  UNL1        0.0000
      7 C          13.6060   12.9504    3.0463 C.3     1  UNL1        0.0000
      8 H          13.6897   13.6380    2.2003 H       1  UNL1        0.0000
      9 H          13.2256   13.4972    3.9207 H       1  UNL1        0.0000
     10 C          12.6473   11.8354    2.7049 C.ar    1  UNL1        0.0000
     11 C          12.6682   11.2236    1.4637 C.ar    1  UNL1        0.0000
     12 H          13.3608   11.6038    0.7277 H       1  UNL1        0.0000
     13 C          11.8404   10.1514    1.1453 C.ar    1  UNL1        0.0000
     14 C          10.9800    9.6926    2.1366 C.ar    1  UNL1        0.0000
     15 H          10.3260    8.8550    1.9490 H       1  UNL1        0.0000
     16 C          10.9106   10.2983    3.3799 C.ar    1  UNL1        0.0000
     17 C           9.8797    9.8925    4.3943 C.3     1  UNL1        0.0000
     18 H           9.2530   10.7763    4.5761 H       1  UNL1        0.0000
     19 H           9.2390    9.1222    3.9514 H       1  UNL1        0.0000
     20 C          10.3020    9.3846    5.7622 C.ar    1  UNL1        0.0000
     21 C           9.2464    9.0107    6.5866 C.ar    1  UNL1        0.0000
     22 H           8.2461    9.1503    6.2022 H       1  UNL1        0.0000
     23 C           9.4258    8.4430    7.8372 C.ar    1  UNL1        0.0000
     24 C          10.7335    8.2536    8.2586 C.ar    1  UNL1        0.0000
     25 H          10.9264    7.7932    9.2138 H       1  UNL1        0.0000
     26 C          11.8265    8.6046    7.4763 C.ar    1  UNL1        0.0000
     27 C          13.1969    8.1788    7.9717 C.3     1  UNL1        0.0000
     28 H          13.0538    7.7313    8.9588 H       1  UNL1        0.0000
     29 H          13.5682    7.3873    7.3151 H       1  UNL1        0.0000
     30 C          14.2729    9.2271    8.0949 C.ar    1  UNL1        0.0000
     31 C          14.5282    9.7869    9.3429 C.ar    1  UNL1        0.0000
     32 H          13.9377    9.4412   10.1772 H       1  UNL1        0.0000
     33 C          15.5454   10.7046    9.5603 C.ar    1  UNL1        0.0000
     34 C          16.3179   11.0651    8.4623 C.ar    1  UNL1        0.0000
     35 H          17.1189   11.7786    8.5725 H       1  UNL1        0.0000
     36 C          16.1391   10.4860    7.2148 C.ar    1  UNL1        0.0000
     37 C          17.1119   10.7755    6.1078 C.3     1  UNL1        0.0000
     38 H          17.8438   11.5046    6.4727 H       1  UNL1        0.0000
     39 H          17.6533    9.8463    5.8966 H       1  UNL1        0.0000
     40 C          16.5756   11.2888    4.7874 C.ar    1  UNL1        0.0000
     41 C          17.4444   11.2171    3.7102 C.ar    1  UNL1        0.0000
     42 H          18.4101   10.7632    3.8806 H       1  UNL1        0.0000
     43 C          17.1296   11.7012    2.4482 C.ar    1  UNL1        0.0000
     44 C          15.8808   12.2852    2.2995 C.ar    1  UNL1        0.0000
     45 H          15.5845   12.6975    1.3483 H       1  UNL1        0.0000
     46 C          15.2946   11.8498    4.6172 C.ar    1  UNL1        0.0000
     47 C          11.7317   11.3982    3.6750 C.ar    1  UNL1        0.0000
     48 C          11.6063    9.2026    6.2270 C.ar    1  UNL1        0.0000
     49 C          15.1409    9.5234    7.0452 C.ar    1  UNL1        0.0000
     50 C          18.1266   11.5595    1.3091 C.3     1  UNL1        0.0000
     51 C          18.3925   10.0660    1.0724 C.3     1  UNL1        0.0000
     52 H          18.8131    9.5967    1.9572 H       1  UNL1        0.0000
     53 H          19.0912    9.9328    0.2487 H       1  UNL1        0.0000
     54 H          17.4637    9.5556    0.8262 H       1  UNL1        0.0000
     55 C          17.6141   12.1653   -0.0003 C.3     1  UNL1        0.0000
     56 H          17.4200   13.2294    0.1114 H       1  UNL1        0.0000
     57 H          16.7050   11.6681   -0.3303 H       1  UNL1        0.0000
     58 H          18.3655   12.0398   -0.7775 H       1  UNL1        0.0000
     59 C          19.4347   12.2694    1.6834 C.3     1  UNL1        0.0000
     60 H          19.8803   11.8331    2.5727 H       1  UNL1        0.0000
     61 H          19.2464   13.3229    1.8784 H       1  UNL1        0.0000
     62 H          20.1522   12.1907    0.8691 H       1  UNL1        0.0000
     63 C          11.8856    9.5619   -0.2575 C.3     1  UNL1        0.0000
     64 C          10.9360    8.3729   -0.4290 C.3     1  UNL1        0.0000
     65 H           9.9028    8.6718   -0.2697 H       1  UNL1        0.0000
     66 H          11.1857    7.5703    0.2614 H       1  UNL1        0.0000
     67 H          11.0207    7.9839   -1.4419 H       1  UNL1        0.0000
     68 C          11.4711   10.6526   -1.2565 C.3     1  UNL1        0.0000
     69 H          10.4750   11.0198   -1.0192 H       1  UNL1        0.0000
     70 H          11.4613   10.2538   -2.2690 H       1  UNL1        0.0000
     71 H          12.1588   11.4929   -1.2264 H       1  UNL1        0.0000
     72 C          13.3074    9.0832   -0.5836 C.3     1  UNL1        0.0000
     73 H          13.5954    8.2689    0.0777 H       1  UNL1        0.0000
     74 H          14.0322    9.8835   -0.4686 H       1  UNL1        0.0000
     75 H          13.3542    8.7243   -1.6100 H       1  UNL1        0.0000
     76 C           8.2143    7.9768    8.6297 C.3     1  UNL1        0.0000
     77 C           8.5865    7.4507   10.0176 C.3     1  UNL1        0.0000
     78 H           9.2192    6.5690    9.9465 H       1  UNL1        0.0000
     79 H           7.6820    7.1692   10.5533 H       1  UNL1        0.0000
     80 H           9.0979    8.2175   10.5931 H       1  UNL1        0.0000
     81 C           7.2299    9.1395    8.8070 C.3     1  UNL1        0.0000
     82 H           6.8524    9.4919    7.8514 H       1  UNL1        0.0000
     83 H           7.7210    9.9679    9.3111 H       1  UNL1        0.0000
     84 H           6.3806    8.8207    9.4078 H       1  UNL1        0.0000
     85 C           7.5367    6.8396    7.8495 C.3     1  UNL1        0.0000
     86 H           7.2022    7.1772    6.8725 H       1  UNL1        0.0000
     87 H           6.6730    6.4713    8.3990 H       1  UNL1        0.0000
     88 H           8.2317    6.0150    7.7052 H       1  UNL1        0.0000
     89 C          15.8809   11.1751   10.9693 C.3     1  UNL1        0.0000
     90 C          16.7067   12.4660   10.9580 C.3     1  UNL1        0.0000
     91 H          16.7967   12.8547   11.9703 H       1  UNL1        0.0000
     92 H          16.2280   13.2202   10.3398 H       1  UNL1        0.0000
     93 H          17.7118   12.2896   10.5830 H       1  UNL1        0.0000
     94 C          16.7129   10.0641   11.6305 C.3     1  UNL1        0.0000
     95 H          16.9957   10.3552   12.6400 H       1  UNL1        0.0000
     96 H          17.6178    9.8746   11.0569 H       1  UNL1        0.0000
     97 H          16.1447    9.1384   11.6829 H       1  UNL1        0.0000
     98 C          14.6188   11.4183   11.8076 C.3     1  UNL1        0.0000
     99 H          14.8939   11.8468   12.7694 H       1  UNL1        0.0000
    100 H          14.0846   10.4935   12.0054 H       1  UNL1        0.0000
    101 H          13.9431   12.1068   11.3072 H       1  UNL1        0.0000
    102 C          14.4190    8.8988    3.1108 C.3     1  UNL1        0.0000
    103 H          15.2687    8.2616    2.8883 H       1  UNL1        0.0000
    104 H          14.7276    9.9238    2.9494 H       1  UNL1        0.0000
    105 H          13.6343    8.6723    2.3990 H       1  UNL1        0.0000
    106 C          13.2149    6.7444    4.9118 C.3     1  UNL1        0.0000
    107 H          13.9465    6.0649    5.3390 H       1  UNL1        0.0000
    108 H          13.0239    6.4044    3.8992 H       1  UNL1        0.0000
    109 H          12.2866    6.6331    5.4672 H       1  UNL1        0.0000
@<TRIPOS>BOND
     1    70    68    1
     2    75    72    1
     3    67    64    1
     4    68    71    1
     5    68    69    1
     6    68    63    1
     7    58    55    1
     8    72    74    1
     9    72    63    1
    10    72    73    1
    11    64    65    1
    12    64    63    1
    13    64    66    1
    14    57    55    1
    15    63    13    1
    16    55    56    1
    17    55    50    1
    18    53    51    1
    19    12    11    1
    20    54    51    1
    21    62    59    1
    22    51    50    1
    23    51    52    1
    24    13    11   ar
    25    13    14   ar
    26    50    59    1
    27    50    43    1
    28    45    44    1
    29    11    10   ar
    30    59    61    1
    31    59    60    1
    32    15    14    1
    33    14    16   ar
    34     8     7    1
    35    44    43   ar
    36    44     6   ar
    37   105   102    1
    38    43    41   ar
    39    10     7    1
    40    10    47   ar
    41   103   102    1
    42   104   102    1
    43     7     6    1
    44     7     9    1
    45   102     1    1
    46     6    46   ar
    47    16    47   ar
    48    16    17    1
    49    47     3    1
    50    41    42    1
    51    41    40   ar
    52   108   106    1
    53    19    17    1
    54    17    18    1
    55    17    20    1
    56    46    40   ar
    57    46     2    1
    58    40    37    1
    59     1   106    1
    60     1     4    1
    61     1     5    1
    62   106   107    1
    63   106   109    1
    64     4    48    1
    65    20    48   ar
    66    20    21   ar
    67     5    49    1
    68    39    37    1
    69    37    38    1
    70    37    36    1
    71    22    21    1
    72    48    26   ar
    73    21    23   ar
    74    86    85    1
    75    49    36   ar
    76    49    30   ar
    77    36    34   ar
    78    29    27    1
    79    26    27    1
    80    26    24   ar
    81    88    85    1
    82    23    24   ar
    83    23    76    1
    84    85    87    1
    85    85    76    1
    86    82    81    1
    87    27    30    1
    88    27    28    1
    89    30    31   ar
    90    24    25    1
    91    34    35    1
    92    34    33   ar
    93    76    81    1
    94    76    77    1
    95    81    83    1
    96    81    84    1
    97    31    33   ar
    98    31    32    1
    99    33    89    1
   100    78    77    1
   101    77    79    1
   102    77    80    1
   103    92    90    1
   104    93    90    1
   105    90    89    1
   106    90    91    1
   107    89    94    1
   108    89    98    1
   109    96    94    1
   110   101    98    1
   111    94    97    1
   112    94    95    1
   113    98   100    1
   114    98    99    1
