@<TRIPOS>MOLECULE
11,12
 92 97 0 0 0
SMALL
GASTEIGER

@<TRIPOS>ATOM
      1 SI          6.3969    7.8109    3.5345 Si      1  UNL1        0.0000
      2 SI          6.4186   10.2045    4.1709 Si      1  UNL1        0.0000
      3 SI          6.1006    5.7712    4.6948 Si      1  UNL1        0.0000
      4 SI          5.9982   11.9176    5.7773 Si      1  UNL1        0.0000
      5 SI          5.5661    6.2040    6.9727 Si      1  UNL1        0.0000
      6 SI          8.1480    4.5548    4.6497 Si      1  UNL1        0.0000
      7 SI          4.3555    4.5185    3.6411 Si      1  UNL1        0.0000
      8 SI          4.4573   11.6047    7.5941 Si      1  UNL1        0.0000
      9 SI          5.2679   13.8001    4.4590 Si      1  UNL1        0.0000
     10 SI          8.1153   12.4278    6.7616 Si      1  UNL1        0.0000
     11 O           5.0112    8.0129    2.7210 O.3     1  UNL1        0.0000
     12 O           5.1043   10.4769    3.2494 O.3     1  UNL1        0.0000
     13 C           7.7724    7.4751    2.2066 C.3     1  UNL1        0.0000
     14 H           7.5935    6.5241    1.7105 H       1  UNL1        0.0000
     15 H           8.7564    7.4257    2.6606 H       1  UNL1        0.0000
     16 H           7.7996    8.2414    1.4357 H       1  UNL1        0.0000
     17 C           8.0561   10.8349    3.3350 C.3     1  UNL1        0.0000
     18 H           8.0661   11.9135    3.2228 H       1  UNL1        0.0000
     19 H           8.2334   10.4033    2.3540 H       1  UNL1        0.0000
     20 H           8.9029   10.5678    3.9600 H       1  UNL1        0.0000
     21 C           7.0718    6.9261    7.9136 C.3     1  UNL1        0.0000
     22 H           6.8164    7.2543    8.9173 H       1  UNL1        0.0000
     23 H           7.4900    7.7766    7.3841 H       1  UNL1        0.0000
     24 H           7.8555    6.1821    8.0104 H       1  UNL1        0.0000
     25 C           4.1691    7.5049    7.1101 C.3     1  UNL1        0.0000
     26 H           3.9945    7.8384    8.1282 H       1  UNL1        0.0000
     27 H           3.2307    7.1026    6.7415 H       1  UNL1        0.0000
     28 H           4.4222    8.3802    6.5159 H       1  UNL1        0.0000
     29 C           4.9946    4.6569    7.9489 C.3     1  UNL1        0.0000
     30 H           4.7812    4.8829    8.9904 H       1  UNL1        0.0000
     31 H           5.7563    3.8847    7.9336 H       1  UNL1        0.0000
     32 H           4.0949    4.2293    7.5183 H       1  UNL1        0.0000
     33 C           8.0804    3.1162    5.9100 C.3     1  UNL1        0.0000
     34 H           8.9694    2.4928    5.8750 H       1  UNL1        0.0000
     35 H           7.2255    2.4746    5.7260 H       1  UNL1        0.0000
     36 H           7.9910    3.4966    6.9220 H       1  UNL1        0.0000
     37 C           9.6489    5.6330    5.1567 C.3     1  UNL1        0.0000
     38 H          10.5725    5.0617    5.1908 H       1  UNL1        0.0000
     39 H           9.4988    6.0684    6.1385 H       1  UNL1        0.0000
     40 H           9.7988    6.4520    4.4615 H       1  UNL1        0.0000
     41 C           8.5934    3.7659    2.9586 C.3     1  UNL1        0.0000
     42 H           9.4477    3.0972    3.0277 H       1  UNL1        0.0000
     43 H           8.8381    4.5267    2.2249 H       1  UNL1        0.0000
     44 H           7.7621    3.1896    2.5647 H       1  UNL1        0.0000
     45 C           2.6458    4.8100    4.4608 C.3     1  UNL1        0.0000
     46 H           1.8446    4.3007    3.9306 H       1  UNL1        0.0000
     47 H           2.3977    5.8656    4.4889 H       1  UNL1        0.0000
     48 H           2.6377    4.4461    5.4836 H       1  UNL1        0.0000
     49 C           4.6357    2.6211    3.7211 C.3     1  UNL1        0.0000
     50 H           3.8444    2.0685    3.2225 H       1  UNL1        0.0000
     51 H           4.6669    2.2851    4.7522 H       1  UNL1        0.0000
     52 H           5.5744    2.3349    3.2588 H       1  UNL1        0.0000
     53 C           4.2154    5.0004    1.7942 C.3     1  UNL1        0.0000
     54 H           3.3175    4.6123    1.3196 H       1  UNL1        0.0000
     55 H           5.0669    4.6343    1.2278 H       1  UNL1        0.0000
     56 H           4.2014    6.0858    1.7008 H       1  UNL1        0.0000
     57 C           4.1104   13.2994    8.4255 C.3     1  UNL1        0.0000
     58 H           3.6075   13.1857    9.3821 H       1  UNL1        0.0000
     59 H           3.4781   13.9232    7.8015 H       1  UNL1        0.0000
     60 H           5.0298   13.8444    8.6050 H       1  UNL1        0.0000
     61 C           2.6958   10.8951    7.3065 C.3     1  UNL1        0.0000
     62 H           2.1785   10.7274    8.2487 H       1  UNL1        0.0000
     63 H           2.7099    9.9503    6.7753 H       1  UNL1        0.0000
     64 H           2.0873   11.5868    6.7310 H       1  UNL1        0.0000
     65 C           5.2933   10.5111    8.9290 C.3     1  UNL1        0.0000
     66 H           4.6003   10.2176    9.7125 H       1  UNL1        0.0000
     67 H           6.1080   11.0463    9.4045 H       1  UNL1        0.0000
     68 H           5.7076    9.6061    8.5001 H       1  UNL1        0.0000
     69 C           6.3158   14.0579    2.8743 C.3     1  UNL1        0.0000
     70 H           5.9487   14.8838    2.2687 H       1  UNL1        0.0000
     71 H           6.2813   13.1620    2.2609 H       1  UNL1        0.0000
     72 H           7.3570   14.2648    3.1030 H       1  UNL1        0.0000
     73 C           3.4858   13.5616    3.8016 C.3     1  UNL1        0.0000
     74 H           3.1420   14.4052    3.2078 H       1  UNL1        0.0000
     75 H           2.7691   13.4163    4.6044 H       1  UNL1        0.0000
     76 H           3.4624   12.6768    3.1662 H       1  UNL1        0.0000
     77 C           5.3372   15.4642    5.4121 C.3     1  UNL1        0.0000
     78 H           5.0385   16.3043    4.7919 H       1  UNL1        0.0000
     79 H           6.3440   15.6616    5.7652 H       1  UNL1        0.0000
     80 H           4.6876   15.4515    6.2796 H       1  UNL1        0.0000
     81 C           7.9480   13.4848    8.3483 C.3     1  UNL1        0.0000
     82 H           8.9143   13.7108    8.7912 H       1  UNL1        0.0000
     83 H           7.3579   12.9782    9.1035 H       1  UNL1        0.0000
     84 H           7.4617   14.4314    8.1355 H       1  UNL1        0.0000
     85 C           9.3260   13.4352    5.6664 C.3     1  UNL1        0.0000
     86 H          10.2303   13.7118    6.2028 H       1  UNL1        0.0000
     87 H           8.8608   14.3542    5.3224 H       1  UNL1        0.0000
     88 H           9.6299   12.8749    4.7894 H       1  UNL1        0.0000
     89 C           9.0147   10.8111    7.2627 C.3     1  UNL1        0.0000
     90 H           9.9917   10.9968    7.6998 H       1  UNL1        0.0000
     91 H           9.1571   10.1629    6.4037 H       1  UNL1        0.0000
     92 H           8.4328   10.2584    7.9924 H       1  UNL1        0.0000
@<TRIPOS>BOND
     1    55    53    1
     2    54    53    1
     3    16    13    1
     4    56    53    1
     5    14    13    1
     6    53     7    1
     7    13    15    1
     8    13     1    1
     9    43    41    1
    10    71    69    1
    11    70    69    1
    12    19    17    1
    13    44    41    1
    14    11     1    1
    15    69    72    1
    16    69     9    1
    17    41    42    1
    18    41     6    1
    19    76    73    1
    20    74    73    1
    21    50    49    1
    22    18    17    1
    23    12     2    1
    24    52    49    1
    25    17    20    1
    26    17     2    1
    27     1     2    1
    28     1     3    1
    29     7    49    1
    30     7    45    1
    31     7     3    1
    32    49    51    1
    33    73     9    1
    34    73    75    1
    35    46    45    1
    36     2     4    1
    37     9    77    1
    38     9     4    1
    39    45    47    1
    40    45    48    1
    41    40    37    1
    42     6     3    1
    43     6    37    1
    44     6    33    1
    45     3     5    1
    46    88    85    1
    47    78    77    1
    48    37    38    1
    49    37    39    1
    50    87    85    1
    51    77    79    1
    52    77    80    1
    53    85    86    1
    54    85    10    1
    55    35    33    1
    56     4    10    1
    57     4     8    1
    58    34    33    1
    59    33    36    1
    60    91    89    1
    61    28    25    1
    62    64    61    1
    63    27    25    1
    64    10    89    1
    65    10    81    1
    66    63    61    1
    67     5    25    1
    68     5    21    1
    69     5    29    1
    70    25    26    1
    71    89    90    1
    72    89    92    1
    73    61     8    1
    74    61    62    1
    75    23    21    1
    76    32    29    1
    77     8    57    1
    78     8    65    1
    79    59    57    1
    80    21    24    1
    81    21    22    1
    82    31    29    1
    83    29    30    1
    84    84    81    1
    85    81    82    1
    86    81    83    1
    87    57    60    1
    88    57    58    1
    89    68    65    1
    90    65    67    1
    91    65    66    1
    92     3    11    0
    93     3    13    0
    94     3    33    0
    95     4    12    0
    96     4    17    0
    97     4    65    0
