@<TRIPOS>MOLECULE
5,7
 8 7 0 0 0
SMALL
GASTEIGER

@<TRIPOS>ATOM
      1 S           3.5584    6.3589    9.0581 S.3     1  UNL1        0.1076
      2 F           3.6871    7.5846   11.3525 F       1  UNL1       -0.1499
      3 F           4.2035    8.9451    9.7736 F       1  UNL1       -0.1499
      4 F           2.1434    8.3931   10.0732 F       1  UNL1       -0.1499
      5 O           3.2618    6.6799    7.6790 O.3     1  UNL1       -0.0619
      6 O           2.6421    5.5284    9.7573 O.3     1  UNL1       -0.0619
      7 O           4.9744    6.0503    9.1535 O.3     1  UNL1       -0.0619
      8 C           3.3943    7.9298   10.0952 C.3     1  UNL1        0.5278
@<TRIPOS>BOND
     1     5     1    1
     2     1     7    1
     3     1     6    1
     4     1     8    1
     5     3     8    1
     6     4     8    1
     7     8     2    1
