@<TRIPOS>MOLECULE
1,2
 16 15 0 0 0
SMALL
GASTEIGER

@<TRIPOS>ATOM
      1 O           1.7351    2.3338    8.7995 O.3     1  UNL1       -0.3807
      2 O           3.9303    1.6434    7.1852 O.3     1  UNL1       -0.3807
      3 C           1.7719    1.1111    8.0746 C.3     1  UNL1        0.0706
      4 H           0.7496    0.8112    7.7990 H       1  UNL1        0.0582
      5 H           2.2380    0.3292    8.6912 H       1  UNL1        0.0582
      6 C           2.5989    1.3234    6.8134 C.3     1  UNL1        0.0706
      7 H           2.5903    0.3998    6.2160 H       1  UNL1        0.0582
      8 H           2.1713    2.1442    6.2167 H       1  UNL1        0.0582
      9 C           0.9423    2.2127    9.9744 C.3     1  UNL1        0.0365
     10 H          -0.0912    1.9596    9.7074 H       1  UNL1        0.0524
     11 H           0.9739    3.1828   10.4697 H       1  UNL1        0.0524
     12 H           1.3506    1.4441   10.6395 H       1  UNL1        0.0524
     13 C           4.7917    1.6790    6.0610 C.3     1  UNL1        0.0365
     14 H           4.8077    0.7028    5.5615 H       1  UNL1        0.0524
     15 H           5.7848    1.9217    6.4344 H       1  UNL1        0.0524
     16 H           4.4697    2.4457    5.3463 H       1  UNL1        0.0524
@<TRIPOS>BOND
     1    16    13    1
     2    14    13    1
     3    13    15    1
     4    13     2    1
     5     7     6    1
     6     8     6    1
     7     6     2    1
     8     6     3    1
     9     4     3    1
    10     3     5    1
    11     3     1    1
    12     1     9    1
    13    10     9    1
    14     9    11    1
    15     9    12    1
