@<TRIPOS>MOLECULE
5,6
 8 7 0 0 0
SMALL
GASTEIGER

@<TRIPOS>ATOM
      1 S           0.6154    0.9430    5.4387 S.3     1  UNL1        0.1076
      2 F          -1.0905    0.6595    3.3875 F       1  UNL1       -0.1499
      3 F          -1.7804    2.0017    4.9207 F       1  UNL1       -0.1499
      4 F          -1.8224   -0.1302    5.2543 F       1  UNL1       -0.1499
      5 O           1.1018   -0.4183    5.3127 O.3     1  UNL1       -0.0619
      6 O           1.3046    1.8698    4.5586 O.3     1  UNL1       -0.0619
      7 O           0.3922    1.4047    6.7736 O.3     1  UNL1       -0.0619
      8 C          -1.1143    0.8637    4.7090 C.3     1  UNL1        0.5278
@<TRIPOS>BOND
     1     2     8    1
     2     6     1    1
     3     8     3    1
     4     8     4    1
     5     8     1    1
     6     5     1    1
     7     1     7    1
