@<TRIPOS>MOLECULE
9,10
 130 139 0 0 0
SMALL
GASTEIGER

@<TRIPOS>ATOM
      1 SI         -1.1868    2.5545   17.0538 Si      1  UNL1        0.0000
      2 SI         -3.1342    0.2632   18.0291 Si      1  UNL1        0.0000
      3 SI         -5.5140    2.0423   17.6628 Si      1  UNL1        0.0000
      4 SI         -1.3642    1.5493   14.2290 Si      1  UNL1        0.0000
      5 SI         -3.3840   -0.6695   15.1227 Si      1  UNL1        0.0000
      6 SI         -5.7466    1.2408   14.8376 Si      1  UNL1        0.0000
      7 SI         -3.8008    3.1378   13.3016 Si      1  UNL1        0.0000
      8 SI         -4.4231    6.0294   14.2829 Si      1  UNL1        0.0000
      9 O          -4.5568    3.2683   17.2891 O.3     1  UNL1        0.0000
     10 O          -2.0495    3.8838   16.8576 O.3     1  UNL1        0.0000
     11 O          -2.0506    1.4497   17.8786 O.3     1  UNL1        0.0000
     12 O          -4.6402    0.8043   18.2599 O.3     1  UNL1        0.0000
     13 O          -0.6791    1.9497   15.6327 O.3     1  UNL1        0.0000
     14 O          -3.0956   -0.6909   16.7152 O.3     1  UNL1        0.0000
     15 O          -6.2954    1.5244   16.3318 O.3     1  UNL1        0.0000
     16 O          -2.2647    0.2086   14.3512 O.3     1  UNL1        0.0000
     17 O          -4.8690   -0.1241   14.7687 O.3     1  UNL1        0.0000
     18 O          -4.8392    2.4934   14.3678 O.3     1  UNL1        0.0000
     19 O          -2.2635    2.7774   13.6822 O.3     1  UNL1        0.0000
     20 O          -3.9542    4.7368   13.3695 O.3     1  UNL1        0.0000
     21 C           0.4298    2.8504   18.0364 C.3     1  UNL1        0.0000
     22 C           0.1976    3.2853   19.5052 C.3     1  UNL1        0.0000
     23 C           0.7498    2.1442   20.3595 C.3     1  UNL1        0.0000
     24 C           1.9009    1.5964   19.5235 C.3     1  UNL1        0.0000
     25 C           1.3146    1.5858   18.1140 C.3     1  UNL1        0.0000
     26 C          -2.7029   -0.7636   19.5604 C.3     1  UNL1        0.0000
     27 C          -1.2911   -1.3511   19.5760 C.3     1  UNL1        0.0000
     28 C          -1.1009   -1.7726   21.0318 C.3     1  UNL1        0.0000
     29 C          -1.8150   -0.6856   21.8503 C.3     1  UNL1        0.0000
     30 C          -2.7564    0.0408   20.8697 C.3     1  UNL1        0.0000
     31 C          -6.7577    2.6107   18.9865 C.3     1  UNL1        0.0000
     32 C          -6.0716    2.8218   20.3618 C.3     1  UNL1        0.0000
     33 C          -6.2886    4.2988   20.7087 C.3     1  UNL1        0.0000
     34 C          -7.5857    4.6511   19.9923 C.3     1  UNL1        0.0000
     35 C          -7.3665    3.9850   18.6393 C.3     1  UNL1        0.0000
     36 C           0.0619    1.1428   13.0501 C.3     1  UNL1        0.0000
     37 C           1.0775    0.1375   13.6436 C.3     1  UNL1        0.0000
     38 C           1.3926   -0.8734   12.5280 C.3     1  UNL1        0.0000
     39 C           0.8626   -0.2299   11.2484 C.3     1  UNL1        0.0000
     40 C          -0.3862    0.4972   11.7341 C.3     1  UNL1        0.0000
     41 C          -3.2292   -2.4375   14.4675 C.3     1  UNL1        0.0000
     42 C          -1.8304   -3.0358   14.6357 C.3     1  UNL1        0.0000
     43 C          -1.8295   -4.2594   13.7132 C.3     1  UNL1        0.0000
     44 C          -2.8419   -3.9378   12.5972 C.3     1  UNL1        0.0000
     45 C          -3.4437   -2.5722   12.9573 C.3     1  UNL1        0.0000
     46 C          -7.3038    1.0161   13.7867 C.3     1  UNL1        0.0000
     47 C          -8.2983    2.1749   13.8985 C.3     1  UNL1        0.0000
     48 C          -9.5926    1.6171   13.2957 C.3     1  UNL1        0.0000
     49 C          -9.5305    0.0937   13.5190 C.3     1  UNL1        0.0000
     50 C          -8.1767   -0.1757   14.1907 C.3     1  UNL1        0.0000
     51 C          -4.1706    2.5806   11.5252 C.3     1  UNL1        0.0000
     52 C          -4.2403    1.0527   11.3291 C.3     1  UNL1        0.0000
     53 C          -5.3052    0.8013   10.2427 C.3     1  UNL1        0.0000
     54 C          -5.7478    2.1870    9.7633 C.3     1  UNL1        0.0000
     55 C          -5.5109    3.0820   10.9754 C.3     1  UNL1        0.0000
     56 C          -2.8897    6.5933   15.2649 C.3     1  UNL1        0.0000
     57 C          -5.9027    5.5687   15.3757 C.3     1  UNL1        0.0000
     58 C          -4.8966    7.3375   12.9711 C.3     1  UNL1        0.0000
     59 H           1.0111    3.6318   17.5380 H       1  UNL1        0.0000
     60 H          -0.8566    3.4717   19.7164 H       1  UNL1        0.0000
     61 H           0.7521    4.2041   19.7171 H       1  UNL1        0.0000
     62 H          -0.0110    1.3755   20.4783 H       1  UNL1        0.0000
     63 H           1.0646    2.4812   21.3472 H       1  UNL1        0.0000
     64 H           2.2252    0.6084   19.8482 H       1  UNL1        0.0000
     65 H           2.7548    2.2750   19.5744 H       1  UNL1        0.0000
     66 H           2.0783    1.5860   17.3385 H       1  UNL1        0.0000
     67 H           0.7045    0.6943   17.9756 H       1  UNL1        0.0000
     68 H          -3.4051   -1.5979   19.6465 H       1  UNL1        0.0000
     69 H          -0.5699   -0.5804   19.3094 H       1  UNL1        0.0000
     70 H          -1.1824   -2.1791   18.8780 H       1  UNL1        0.0000
     71 H          -0.0498   -1.8666   21.3034 H       1  UNL1        0.0000
     72 H          -1.5792   -2.7390   21.1963 H       1  UNL1        0.0000
     73 H          -1.0934    0.0113   22.2760 H       1  UNL1        0.0000
     74 H          -2.3688   -1.1278   22.6780 H       1  UNL1        0.0000
     75 H          -3.7749    0.1025   21.2472 H       1  UNL1        0.0000
     76 H          -2.4141    1.0600   20.6914 H       1  UNL1        0.0000
     77 H          -7.5738    1.8949   19.1087 H       1  UNL1        0.0000
     78 H          -5.0065    2.5969   20.3225 H       1  UNL1        0.0000
     79 H          -6.5312    2.1781   21.1136 H       1  UNL1        0.0000
     80 H          -5.4686    4.8871   20.2753 H       1  UNL1        0.0000
     81 H          -6.3281    4.4713   21.7839 H       1  UNL1        0.0000
     82 H          -7.7447    5.7249   19.9093 H       1  UNL1        0.0000
     83 H          -8.4388    4.2045   20.5080 H       1  UNL1        0.0000
     84 H          -8.2744    3.8920   18.0456 H       1  UNL1        0.0000
     85 H          -6.6345    4.5808   18.0865 H       1  UNL1        0.0000
     86 H           0.6020    2.0580   12.7950 H       1  UNL1        0.0000
     87 H           0.6631   -0.3658   14.5149 H       1  UNL1        0.0000
     88 H           1.9762    0.6603   13.9678 H       1  UNL1        0.0000
     89 H           0.8597   -1.8073   12.7086 H       1  UNL1        0.0000
     90 H           2.4566   -1.0995   12.4661 H       1  UNL1        0.0000
     91 H           0.6523   -0.9625   10.4699 H       1  UNL1        0.0000
     92 H           1.5850    0.4902   10.8604 H       1  UNL1        0.0000
     93 H          -0.7563    1.2356   11.0253 H       1  UNL1        0.0000
     94 H          -1.1766   -0.2266   11.9310 H       1  UNL1        0.0000
     95 H          -3.9415   -3.0964   14.9713 H       1  UNL1        0.0000
     96 H          -1.6133   -3.2908   15.6707 H       1  UNL1        0.0000
     97 H          -1.0913   -2.3088   14.3010 H       1  UNL1        0.0000
     98 H          -2.1484   -5.1434   14.2658 H       1  UNL1        0.0000
     99 H          -0.8358   -4.4603   13.3140 H       1  UNL1        0.0000
    100 H          -3.6213   -4.6991   12.5642 H       1  UNL1        0.0000
    101 H          -2.3654   -3.9122   11.6178 H       1  UNL1        0.0000
    102 H          -2.9015   -1.7767   12.4475 H       1  UNL1        0.0000
    103 H          -4.4932   -2.4928   12.6823 H       1  UNL1        0.0000
    104 H          -7.0426    0.8958   12.7327 H       1  UNL1        0.0000
    105 H          -7.9537    3.0731   13.3886 H       1  UNL1        0.0000
    106 H          -8.4424    2.4153   14.9513 H       1  UNL1        0.0000
    107 H          -9.6341    1.8393   12.2288 H       1  UNL1        0.0000
    108 H         -10.4731    2.0593   13.7600 H       1  UNL1        0.0000
    109 H          -9.5914   -0.4301   12.5646 H       1  UNL1        0.0000
    110 H         -10.3549   -0.2555   14.1393 H       1  UNL1        0.0000
    111 H          -8.2857   -0.1832   15.2743 H       1  UNL1        0.0000
    112 H          -7.7407   -1.1248   13.8860 H       1  UNL1        0.0000
    113 H          -3.3909    2.9676   10.8613 H       1  UNL1        0.0000
    114 H          -4.5199    0.5567   12.2573 H       1  UNL1        0.0000
    115 H          -3.2689    0.6625   11.0318 H       1  UNL1        0.0000
    116 H          -6.1549    0.2651   10.6655 H       1  UNL1        0.0000
    117 H          -4.9135    0.2013    9.4218 H       1  UNL1        0.0000
    118 H          -6.7842    2.1960    9.4272 H       1  UNL1        0.0000
    119 H          -5.1177    2.5167    8.9358 H       1  UNL1        0.0000
    120 H          -5.4746    4.1403   10.7250 H       1  UNL1        0.0000
    121 H          -6.2957    2.9300   11.7144 H       1  UNL1        0.0000
    122 H          -2.2540    5.7223   15.4168 H       1  UNL1        0.0000
    123 H          -2.3026    7.3513   14.7537 H       1  UNL1        0.0000
    124 H          -3.1766    6.9893   16.2383 H       1  UNL1        0.0000
    125 H          -5.7838    4.5383   15.7056 H       1  UNL1        0.0000
    126 H          -5.9495    6.1956   16.2624 H       1  UNL1        0.0000
    127 H          -6.8560    5.6418   14.8593 H       1  UNL1        0.0000
    128 H          -5.7503    7.0136   12.3849 H       1  UNL1        0.0000
    129 H          -5.1545    8.2854   13.4308 H       1  UNL1        0.0000
    130 H          -4.0789    7.5156   12.2805 H       1  UNL1        0.0000
@<TRIPOS>BOND
     1   119    54    1
     2   117    53    1
     3   118    54    1
     4    54    53    1
     5    54    55    1
     6    53   116    1
     7    53    52    1
     8    91    39    1
     9   120    55    1
    10    92    39    1
    11   113    51    1
    12    55    51    1
    13    55   121    1
    14    93    40    1
    15   115    52    1
    16    39    40    1
    17    39    38    1
    18    52    51    1
    19    52   114    1
    20    51     7    1
    21   101    44    1
    22    40    94    1
    23    40    36    1
    24   107    48    1
    25   130    58    1
    26   128    58    1
    27   102    45    1
    28    90    38    1
    29    38    89    1
    30    38    37    1
    31   100    44    1
    32   109    49    1
    33    44    45    1
    34    44    43    1
    35   103    45    1
    36   104    46    1
    37    86    36    1
    38    45    41    1
    39    58   129    1
    40    58     8    1
    41    36    37    1
    42    36     4    1
    43    48    49    1
    44    48   108    1
    45    48    47    1
    46     7    20    1
    47     7    19    1
    48     7    18    1
    49    99    43    1
    50    20     8    1
    51   105    47    1
    52    49   110    1
    53    49    50    1
    54    37    88    1
    55    37    87    1
    56    19     4    1
    57    43    98    1
    58    43    42    1
    59    46    47    1
    60    46    50    1
    61    46     6    1
    62   112    50    1
    63    47   106    1
    64    50   111    1
    65     4    16    1
    66     4    13    1
    67     8    56    1
    68     8    57    1
    69    97    42    1
    70    16     5    1
    71    18     6    1
    72    41    42    1
    73    41    95    1
    74    41     5    1
    75    42    96    1
    76   123    56    1
    77    17     6    1
    78    17     5    1
    79     6    15    1
    80   127    57    1
    81     5    14    1
    82    56   122    1
    83    56   124    1
    84    57   125    1
    85    57   126    1
    86    13     1    1
    87    15     3    1
    88    14     2    1
    89    10     1    1
    90     1    11    1
    91     1    21    1
    92     9     3    1
    93    66    25    1
    94    59    21    1
    95     3    12    1
    96     3    31    1
    97    11     2    1
    98    67    25    1
    99     2    12    1
   100     2    26    1
   101    21    25    1
   102    21    22    1
   103    84    35    1
   104    85    35    1
   105    25    24    1
   106    35    31    1
   107    35    34    1
   108    70    27    1
   109    31    77    1
   110    31    32    1
   111    69    27    1
   112    22    60    1
   113    22    61    1
   114    22    23    1
   115    24    65    1
   116    24    64    1
   117    24    23    1
   118    26    27    1
   119    26    68    1
   120    26    30    1
   121    27    28    1
   122    82    34    1
   123    34    83    1
   124    34    33    1
   125    80    33    1
   126    78    32    1
   127    23    62    1
   128    23    63    1
   129    32    33    1
   130    32    79    1
   131    76    30    1
   132    33    81    1
   133    30    75    1
   134    30    29    1
   135    28    72    1
   136    28    71    1
   137    28    29    1
   138    29    73    1
   139    29    74    1
