@<TRIPOS>MOLECULE
5,6
 94 95 0 0 0
SMALL
GASTEIGER

@<TRIPOS>ATOM
      1 CL          1.5426   -3.6359    6.5210 Cl      1  UNL1        0.0000
      2 CL          4.3820    1.5146    9.5594 Cl      1  UNL1        0.0000
      3 SI         -0.5998    5.5022    6.3286 Si      1  UNL1        0.0000
      4 SI         -4.2192    1.0303    4.4823 Si      1  UNL1        0.0000
      5 O          -0.9264    0.6867    2.1467 O.3     1  UNL1        0.0000
      6 O           1.3088    2.6632    3.8670 O.3     1  UNL1        0.0000
      7 C          -1.7333    0.0710    3.0842 C.3     1  UNL1        0.0000
      8 H          -2.5169   -0.5120    2.5701 H       1  UNL1        0.0000
      9 C          -0.9253   -0.8833    3.9522 C.ar    1  UNL1        0.0000
     10 C           0.1766   -0.3969    4.6508 C.ar    1  UNL1        0.0000
     11 H           0.4419    0.6559    4.5549 H       1  UNL1        0.0000
     12 C           0.9377   -1.2393    5.4417 C.ar    1  UNL1        0.0000
     13 H           1.7883   -0.8590    5.9863 H       1  UNL1        0.0000
     14 C           0.6008   -2.5826    5.5271 C.ar    1  UNL1        0.0000
     15 C          -0.4729   -3.0896    4.8141 C.ar    1  UNL1        0.0000
     16 H          -0.7124   -4.1398    4.8713 H       1  UNL1        0.0000
     17 C          -1.2281   -2.2371    4.0259 C.ar    1  UNL1        0.0000
     18 H          -2.0489   -2.6385    3.4491 H       1  UNL1        0.0000
     19 C          -2.3946    1.1228    3.9749 C.3     1  UNL1        0.0000
     20 C          -1.6186    2.1221    4.3490 C.1     1  UNL1        0.0000
     21 C          -1.0564    3.1310    4.8729 C.1     1  UNL1        0.0000
     22 C          -0.1435    3.9912    5.2783 C.3     1  UNL1        0.0000
     23 C           1.2806    3.6327    4.8494 C.3     1  UNL1        0.0000
     24 H           1.7831    4.5488    4.4872 H       1  UNL1        0.0000
     25 C           2.0405    3.1430    6.0735 C.ar    1  UNL1        0.0000
     26 C           1.5555    2.0686    6.8107 C.ar    1  UNL1        0.0000
     27 H           0.6010    1.6338    6.5541 H       1  UNL1        0.0000
     28 C           2.2725    1.5587    7.8779 C.ar    1  UNL1        0.0000
     29 H           1.8911    0.7250    8.4466 H       1  UNL1        0.0000
     30 C           3.4834    2.1393    8.2215 C.ar    1  UNL1        0.0000
     31 C           3.9779    3.2175    7.5061 C.ar    1  UNL1        0.0000
     32 H           4.9207    3.6622    7.7836 H       1  UNL1        0.0000
     33 C           3.2558    3.7094    6.4329 C.ar    1  UNL1        0.0000
     34 H           3.6483    4.5418    5.8676 H       1  UNL1        0.0000
     35 C          -0.9234    4.9346    8.1488 C.3     1  UNL1        0.0000
     36 H          -1.4592    5.7409    8.6591 H       1  UNL1        0.0000
     37 C          -1.8172    3.6968    8.1859 C.3     1  UNL1        0.0000
     38 H          -1.3285    2.8609    7.6918 H       1  UNL1        0.0000
     39 H          -2.7626    3.8837    7.6829 H       1  UNL1        0.0000
     40 H          -2.0295    3.4084    9.2146 H       1  UNL1        0.0000
     41 C           0.3514    4.6700    8.9473 C.3     1  UNL1        0.0000
     42 H           0.1019    4.3752    9.9660 H       1  UNL1        0.0000
     43 H           0.9774    5.5562    8.9993 H       1  UNL1        0.0000
     44 H           0.9302    3.8694    8.4972 H       1  UNL1        0.0000
     45 C           0.8147    6.8139    6.3651 C.3     1  UNL1        0.0000
     46 H           1.6862    6.3152    6.8049 H       1  UNL1        0.0000
     47 C           1.2476    7.3555    5.0033 C.3     1  UNL1        0.0000
     48 H           0.4543    7.9377    4.5449 H       1  UNL1        0.0000
     49 H           1.5179    6.5555    4.3197 H       1  UNL1        0.0000
     50 H           2.1150    8.0052    5.1182 H       1  UNL1        0.0000
     51 C           0.4540    7.9944    7.2684 C.3     1  UNL1        0.0000
     52 H           1.3039    8.6678    7.3723 H       1  UNL1        0.0000
     53 H           0.1612    7.6617    8.2600 H       1  UNL1        0.0000
     54 H          -0.3700    8.5611    6.8418 H       1  UNL1        0.0000
     55 C          -2.2938    6.0887    5.5972 C.3     1  UNL1        0.0000
     56 H          -2.8367    5.1723    5.3430 H       1  UNL1        0.0000
     57 C          -3.1562    6.8670    6.5901 C.3     1  UNL1        0.0000
     58 H          -2.6532    7.7731    6.9179 H       1  UNL1        0.0000
     59 H          -3.3862    6.2681    7.4663 H       1  UNL1        0.0000
     60 H          -4.0973    7.1566    6.1234 H       1  UNL1        0.0000
     61 C          -2.1634    6.8948    4.3051 C.3     1  UNL1        0.0000
     62 H          -3.1409    7.0306    3.8437 H       1  UNL1        0.0000
     63 H          -1.5206    6.3913    3.5895 H       1  UNL1        0.0000
     64 H          -1.7561    7.8818    4.5092 H       1  UNL1        0.0000
     65 C          -4.3601   -0.1481    6.0087 C.3     1  UNL1        0.0000
     66 H          -5.3119    0.0558    6.5078 H       1  UNL1        0.0000
     67 C          -4.3536   -1.6315    5.6491 C.3     1  UNL1        0.0000
     68 H          -3.4104   -1.9041    5.1848 H       1  UNL1        0.0000
     69 H          -5.1649   -1.8763    4.9690 H       1  UNL1        0.0000
     70 H          -4.4729   -2.2363    6.5473 H       1  UNL1        0.0000
     71 C          -3.2411    0.1377    7.0098 C.3     1  UNL1        0.0000
     72 H          -3.3550   -0.4822    7.8978 H       1  UNL1        0.0000
     73 H          -3.2485    1.1799    7.3164 H       1  UNL1        0.0000
     74 H          -2.2717   -0.0801    6.5655 H       1  UNL1        0.0000
     75 C          -4.7024    2.8066    5.0645 C.3     1  UNL1        0.0000
     76 H          -3.8280    3.1933    5.6004 H       1  UNL1        0.0000
     77 C          -4.9770    3.7618    3.9040 C.3     1  UNL1        0.0000
     78 H          -5.9009    3.4939    3.3978 H       1  UNL1        0.0000
     79 H          -4.1660    3.7376    3.1811 H       1  UNL1        0.0000
     80 H          -5.0834    4.7832    4.2674 H       1  UNL1        0.0000
     81 C          -5.8793    2.8382    6.0384 C.3     1  UNL1        0.0000
     82 H          -6.1046    3.8659    6.3212 H       1  UNL1        0.0000
     83 H          -5.6521    2.2834    6.9439 H       1  UNL1        0.0000
     84 H          -6.7710    2.4101    5.5878 H       1  UNL1        0.0000
     85 C          -5.2309    0.3247    3.0007 C.3     1  UNL1        0.0000
     86 H          -4.9306   -0.7225    2.8819 H       1  UNL1        0.0000
     87 C          -6.7355    0.3320    3.2681 C.3     1  UNL1        0.0000
     88 H          -7.1062    1.3506    3.3483 H       1  UNL1        0.0000
     89 H          -6.9698   -0.1900    4.1925 H       1  UNL1        0.0000
     90 H          -7.2706   -0.1558    2.4544 H       1  UNL1        0.0000
     91 C          -4.9294    1.0270    1.6761 C.3     1  UNL1        0.0000
     92 H          -5.4058    0.4972    0.8517 H       1  UNL1        0.0000
     93 H          -3.8592    1.0628    1.4873 H       1  UNL1        0.0000
     94 H          -5.3068    2.0449    1.6814 H       1  UNL1        0.0000
@<TRIPOS>BOND
     1    92    91    1
     2    93    91    1
     3    91    94    1
     4    91    85    1
     5     5     7    1
     6    90    87    1
     7     8     7    1
     8    86    85    1
     9    85    87    1
    10    85     4    1
    11     7     9    1
    12     7    19    1
    13    79    77    1
    14    87    88    1
    15    87    89    1
    16    78    77    1
    17    18    17    1
    18    63    61    1
    19    62    61    1
    20     6    23    1
    21    77    80    1
    22    77    75    1
    23     9    17   ar
    24     9    10   ar
    25    19    20    1
    26    19     4    1
    27    17    15   ar
    28    61    64    1
    29    61    55    1
    30    49    47    1
    31    20    21    3
    32     4    75    1
    33     4    65    1
    34    24    23    1
    35    48    47    1
    36    11    10    1
    37    10    12   ar
    38    15    16    1
    39    15    14   ar
    40    23    22    1
    41    23    25    1
    42    21    22    1
    43    69    67    1
    44    47    50    1
    45    47    45    1
    46    75    76    1
    47    75    81    1
    48    68    67    1
    49    22     3    1
    50    56    55    1
    51    12    14   ar
    52    12    13    1
    53    14     1    1
    54    84    81    1
    55    55     3    1
    56    55    57    1
    57    67    65    1
    58    67    70    1
    59    34    33    1
    60    65    66    1
    61    65    71    1
    62    81    82    1
    63    81    83    1
    64    25    33   ar
    65    25    26   ar
    66    60    57    1
    67     3    45    1
    68     3    35    1
    69    45    46    1
    70    45    51    1
    71    33    31   ar
    72    27    26    1
    73    74    71    1
    74    57    58    1
    75    57    59    1
    76    26    28   ar
    77    54    51    1
    78    71    73    1
    79    71    72    1
    80    51    52    1
    81    51    53    1
    82    31    32    1
    83    31    30   ar
    84    39    37    1
    85    38    37    1
    86    28    30   ar
    87    28    29    1
    88    35    37    1
    89    35    36    1
    90    35    41    1
    91    37    40    1
    92    30     2    1
    93    44    41    1
    94    41    43    1
    95    41    42    1
