@<TRIPOS>MOLECULE
1,2
 31 31 0 0 0
SMALL
GASTEIGER

@<TRIPOS>ATOM
      1 O          10.9085   10.5930   13.6726 O.3     1  UNL1        0.0000
      2 O          11.1548   10.8185   11.3605 O.3     1  UNL1        0.0000
      3 O          10.8760   12.9069   12.6898 O.3     1  UNL1        0.0000
      4 O           9.0150   11.5482   12.4230 O.3     1  UNL1        0.0000
      5 C          10.3967   10.8890   14.9614 C.3     1  UNL1        0.0000
      6 H           9.3153   11.0491   14.9126 H       1  UNL1        0.0000
      7 H          10.8762   11.7883   15.3640 H       1  UNL1        0.0000
      8 H          10.6062   10.0433   15.6215 H       1  UNL1        0.0000
      9 C          11.3329   11.5703   10.1689 C.3     1  UNL1        0.0000
     10 H          11.4843   12.6239   10.4125 H       1  UNL1        0.0000
     11 H          10.4552   11.4657    9.5193 H       1  UNL1        0.0000
     12 H          12.2148   11.1953    9.6449 H       1  UNL1        0.0000
     13 C           9.7574   13.7815   12.7278 C.3     1  UNL1        0.0000
     14 C           8.5264   12.8762   12.3278 C.3     1  UNL1        0.0000
     15 C           9.6526   14.3669   14.1455 C.3     1  UNL1        0.0000
     16 H          10.5982   14.8493   14.3828 H       1  UNL1        0.0000
     17 H           9.4779   13.5891   14.8809 H       1  UNL1        0.0000
     18 H           8.8573   15.1042   14.2015 H       1  UNL1        0.0000
     19 C          10.0157   14.9531   11.7724 C.3     1  UNL1        0.0000
     20 H          10.2100   14.6107   10.7613 H       1  UNL1        0.0000
     21 H          10.8942   15.4924   12.1188 H       1  UNL1        0.0000
     22 H           9.1667   15.6307   11.7667 H       1  UNL1        0.0000
     23 C           7.3116   13.0175   13.2522 C.3     1  UNL1        0.0000
     24 H           7.5543   12.7412   14.2730 H       1  UNL1        0.0000
     25 H           6.5320   12.3461   12.9006 H       1  UNL1        0.0000
     26 H           6.9355   14.0362   13.2324 H       1  UNL1        0.0000
     27 C           8.0381   13.1072   10.8887 C.3     1  UNL1        0.0000
     28 H           7.2822   12.3580   10.6640 H       1  UNL1        0.0000
     29 H           8.8494   12.9886   10.1782 H       1  UNL1        0.0000
     30 H           7.5999   14.0948   10.7802 H       1  UNL1        0.0000
     31 B          10.4521   11.5472   12.5416 B       1  UNL1        0.0000
@<TRIPOS>BOND
     1    11     9    1
     2    12     9    1
     3     9    10    1
     4     9     2    1
     5    29    27    1
     6    28    27    1
     7    20    19    1
     8    30    27    1
     9    27    14    1
    10     2    31    1
    11    22    19    1
    12    19    21    1
    13    19    13    1
    14    14     4    1
    15    14    13    1
    16    14    23    1
    17     4    31    1
    18    31     3    1
    19    31     1    1
    20     3    13    1
    21    13    15    1
    22    25    23    1
    23    26    23    1
    24    23    24    1
    25     1     5    1
    26    15    18    1
    27    15    16    1
    28    15    17    1
    29     6     5    1
    30     5     7    1
    31     5     8    1
