@<TRIPOS>MOLECULE
1,2
 26 26 0 0 0
SMALL
GASTEIGER

@<TRIPOS>ATOM
      1 O           4.7503    9.7788    5.7220 O.3     1  UNL1        0.0000
      2 O           4.4766   11.0327    3.7692 O.3     1  UNL1        0.0000
      3 O           3.4611   11.8592    5.6516 O.3     1  UNL1        0.0000
      4 C           4.4526    9.5270    7.0953 C.3     1  UNL1        0.0000
      5 H           3.4923    9.9691    7.3619 H       1  UNL1        0.0000
      6 H           5.2318    9.9658    7.7215 H       1  UNL1        0.0000
      7 H           4.4278    8.4482    7.2321 H       1  UNL1        0.0000
      8 C           4.0017   12.3533    3.4058 C.3     1  UNL1        0.0000
      9 C           2.9982   12.6887    4.5680 C.3     1  UNL1        0.0000
     10 C           5.2261   13.2719    3.3901 C.3     1  UNL1        0.0000
     11 H           5.9668   12.8413    2.7196 H       1  UNL1        0.0000
     12 H           5.6673   13.3358    4.3818 H       1  UNL1        0.0000
     13 H           4.9653   14.2669    3.0431 H       1  UNL1        0.0000
     14 C           3.3850   12.3102    2.0125 C.3     1  UNL1        0.0000
     15 H           2.5910   11.5738    1.9466 H       1  UNL1        0.0000
     16 H           4.1585   12.0406    1.2969 H       1  UNL1        0.0000
     17 H           2.9896   13.2886    1.7536 H       1  UNL1        0.0000
     18 C           3.0025   14.1463    5.0148 C.3     1  UNL1        0.0000
     19 H           3.9691   14.4326    5.4153 H       1  UNL1        0.0000
     20 H           2.2598   14.2794    5.7967 H       1  UNL1        0.0000
     21 H           2.7522   14.7906    4.1772 H       1  UNL1        0.0000
     22 C           1.5638   12.2508    4.2569 C.3     1  UNL1        0.0000
     23 H           0.9705   12.3394    5.1638 H       1  UNL1        0.0000
     24 H           1.5436   11.2106    3.9409 H       1  UNL1        0.0000
     25 H           1.1263   12.8772    3.4862 H       1  UNL1        0.0000
     26 B           4.2297   10.8728    5.1192 B       1  UNL1        0.0000
@<TRIPOS>BOND
     1    16    14    1
     2    17    14    1
     3    15    14    1
     4    14     8    1
     5    11    10    1
     6    13    10    1
     7    10     8    1
     8    10    12    1
     9     8     2    1
    10     8     9    1
    11    25    22    1
    12     2    26    1
    13    24    22    1
    14    21    18    1
    15    22     9    1
    16    22    23    1
    17     9    18    1
    18     9     3    1
    19    18    19    1
    20    18    20    1
    21    26     3    1
    22    26     1    1
    23     1     4    1
    24     4     7    1
    25     4     5    1
    26     4     6    1
