@<TRIPOS>MOLECULE
1,7
 73 78 0 0 0
SMALL
GASTEIGER

@<TRIPOS>ATOM
      1 O           7.2252   10.3409    3.9288 O.3     1  UNL1        0.0000
      2 SI          8.2995   10.8853    4.9531 Si      1  UNL1        0.0000
      3 O           7.4434   10.6588    6.3796 O.3     1  UNL1        0.0000
      4 SI          7.4888   10.9765    7.9776 Si      1  UNL1        0.0000
      5 O           6.0225   11.4677    8.4297 O.3     1  UNL1        0.0000
      6 SI          4.9441   12.3743    7.5251 Si      1  UNL1        0.0000
      7 O           5.2552   12.2054    5.9863 O.3     1  UNL1        0.0000
      8 C           5.1942   14.1796    8.0524 C.ar    1  UNL1        0.0000
      9 C           5.5097   14.5069    9.3677 C.ar    1  UNL1        0.0000
     10 C           5.7252   15.8192    9.7482 C.ar    1  UNL1        0.0000
     11 C           5.6225   16.8372    8.8148 C.ar    1  UNL1        0.0000
     12 C           5.3018   16.5326    7.5028 C.ar    1  UNL1        0.0000
     13 C           5.0897   15.2171    7.1307 C.ar    1  UNL1        0.0000
     14 H           4.8441   14.9744    6.1088 H       1  UNL1        0.0000
     15 H           5.2177   17.3254    6.7719 H       1  UNL1        0.0000
     16 H           5.7919   17.8634    9.1092 H       1  UNL1        0.0000
     17 H           5.9765   16.0517   10.7734 H       1  UNL1        0.0000
     18 H           5.6016   13.7117   10.0918 H       1  UNL1        0.0000
     19 C           3.2589   11.7308    8.1187 C.ar    1  UNL1        0.0000
     20 C           2.0989   12.2961    7.6013 C.ar    1  UNL1        0.0000
     21 C           0.8504   11.7852    7.9055 C.ar    1  UNL1        0.0000
     22 C           0.7348   10.7043    8.7630 C.ar    1  UNL1        0.0000
     23 C           1.8744   10.1560    9.3264 C.ar    1  UNL1        0.0000
     24 C           3.1206   10.6661    9.0046 C.ar    1  UNL1        0.0000
     25 H           4.0091   10.2411    9.4490 H       1  UNL1        0.0000
     26 H           1.7896    9.3263   10.0154 H       1  UNL1        0.0000
     27 H          -0.2383   10.2970    8.9975 H       1  UNL1        0.0000
     28 H          -0.0334   12.2294    7.4711 H       1  UNL1        0.0000
     29 H           2.1818   13.1474    6.9453 H       1  UNL1        0.0000
     30 C           8.8311   12.2517    8.3749 C.ar    1  UNL1        0.0000
     31 C          10.0460   11.8676    8.9386 C.ar    1  UNL1        0.0000
     32 C          11.0519   12.7887    9.1719 C.ar    1  UNL1        0.0000
     33 C          10.8576   14.1221    8.8530 C.ar    1  UNL1        0.0000
     34 C           9.6488   14.5273    8.3139 C.ar    1  UNL1        0.0000
     35 C           8.6499   13.6005    8.0783 C.ar    1  UNL1        0.0000
     36 H           7.7086   13.9227    7.6633 H       1  UNL1        0.0000
     37 H           9.4819   15.5671    8.0741 H       1  UNL1        0.0000
     38 H          11.6431   14.8420    9.0319 H       1  UNL1        0.0000
     39 H          11.9886   12.4671    9.6047 H       1  UNL1        0.0000
     40 H          10.1967   10.8304    9.2041 H       1  UNL1        0.0000
     41 C           7.8119    9.3618    8.9064 C.ar    1  UNL1        0.0000
     42 C           7.1531    9.0790   10.0988 C.ar    1  UNL1        0.0000
     43 C           7.4301    7.9312   10.8195 C.ar    1  UNL1        0.0000
     44 C           8.3897    7.0429   10.3631 C.ar    1  UNL1        0.0000
     45 C           9.0615    7.3100    9.1822 C.ar    1  UNL1        0.0000
     46 C           8.7710    8.4569    8.4638 C.ar    1  UNL1        0.0000
     47 H           9.2952    8.6584    7.5414 H       1  UNL1        0.0000
     48 H           9.8168    6.6255    8.8223 H       1  UNL1        0.0000
     49 H           8.6168    6.1499   10.9280 H       1  UNL1        0.0000
     50 H           6.9062    7.7309   11.7434 H       1  UNL1        0.0000
     51 H           6.4173    9.7817   10.4580 H       1  UNL1        0.0000
     52 C           9.8440    9.7942    4.9660 C.ar    1  UNL1        0.0000
     53 C          10.8088    9.9075    5.9615 C.ar    1  UNL1        0.0000
     54 C          11.9532    9.1289    5.9424 C.ar    1  UNL1        0.0000
     55 C          12.1581    8.2237    4.9144 C.ar    1  UNL1        0.0000
     56 C          11.2154    8.1081    3.9065 C.ar    1  UNL1        0.0000
     57 C          10.0732    8.8886    3.9361 C.ar    1  UNL1        0.0000
     58 H           9.3414    8.8137    3.1456 H       1  UNL1        0.0000
     59 H          11.3752    7.4111    3.0958 H       1  UNL1        0.0000
     60 H          13.0518    7.6163    4.8958 H       1  UNL1        0.0000
     61 H          12.6884    9.2307    6.7281 H       1  UNL1        0.0000
     62 H          10.6569   10.6203    6.7589 H       1  UNL1        0.0000
     63 C           8.8231   12.7071    4.9178 C.ar    1  UNL1        0.0000
     64 C          10.1571   13.1044    4.8889 C.ar    1  UNL1        0.0000
     65 C          10.5057   14.4433    4.8976 C.ar    1  UNL1        0.0000
     66 C           9.5206   15.4149    4.9353 C.ar    1  UNL1        0.0000
     67 C           8.1878   15.0391    4.9578 C.ar    1  UNL1        0.0000
     68 C           7.8434   13.6985    4.9461 C.ar    1  UNL1        0.0000
     69 H           6.8039   13.3972    4.9617 H       1  UNL1        0.0000
     70 H           7.4191   15.7975    4.9948 H       1  UNL1        0.0000
     71 H           9.7911   16.4611    4.9448 H       1  UNL1        0.0000
     72 H          11.5476   14.7298    4.8778 H       1  UNL1        0.0000
     73 H          10.9307   12.3511    4.8572 H       1  UNL1        0.0000
@<TRIPOS>BOND
     1    59    56    1
     2    58    57    1
     3    56    57   ar
     4    56    55   ar
     5     1     2    1
     6    57    52   ar
     7    73    64    1
     8    72    65    1
     9    64    65   ar
    10    64    63   ar
    11    60    55    1
    12    65    66   ar
    13    55    54   ar
    14    63    68   ar
    15    63     2    1
    16    66    71    1
    17    66    67   ar
    18    68    67   ar
    19    68    69    1
    20     2    52    1
    21     2     3    1
    22    67    70    1
    23    52    53   ar
    24    54    53   ar
    25    54    61    1
    26    53    62    1
    27     7     6    1
    28    14    13    1
    29     3     4    1
    30    15    12    1
    31    29    20    1
    32    13    12   ar
    33    13     8   ar
    34    28    21    1
    35    12    11   ar
    36     6     8    1
    37     6    19    1
    38     6     5    1
    39    47    46    1
    40    20    21   ar
    41    20    19   ar
    42    36    35    1
    43    21    22   ar
    44     4    30    1
    45     4     5    1
    46     4    41    1
    47     8     9   ar
    48    37    34    1
    49    35    34   ar
    50    35    30   ar
    51    19    24   ar
    52    34    33   ar
    53    30    31   ar
    54    46    41   ar
    55    46    45   ar
    56    22    27    1
    57    22    23   ar
    58    11    16    1
    59    11    10   ar
    60    48    45    1
    61    33    38    1
    62    33    32   ar
    63    41    42   ar
    64    31    32   ar
    65    31    40    1
    66    24    23   ar
    67    24    25    1
    68    32    39    1
    69    45    44   ar
    70    23    26    1
    71     9    10   ar
    72     9    18    1
    73    10    17    1
    74    42    51    1
    75    42    43   ar
    76    44    43   ar
    77    44    49    1
    78    43    50    1
