@<TRIPOS>MOLECULE
4,7
 73 78 0 0 0
SMALL
GASTEIGER

@<TRIPOS>ATOM
      1 SI          2.4478   10.8853    4.3238 Si      1  UNL1        0.0000
      2 SI          3.2586   10.9765    1.2993 Si      1  UNL1        0.0000
      3 SI          5.8032   12.3743    1.7518 Si      1  UNL1        0.0000
      4 O           3.5221   10.3409    5.3481 O.3     1  UNL1        0.0000
      5 O           3.3040   10.6588    2.8973 O.3     1  UNL1        0.0000
      6 O           4.7248   11.4677    0.8472 O.3     1  UNL1        0.0000
      7 O           5.4922   12.2055    3.2906 O.3     1  UNL1        0.0000
      8 C           0.9033    9.7942    4.3109 C.ar    1  UNL1        0.0000
      9 C          -0.0615    9.9076    3.3154 C.ar    1  UNL1        0.0000
     10 C          -1.2059    9.1289    3.3345 C.ar    1  UNL1        0.0000
     11 C          -1.4107    8.2236    4.3625 C.ar    1  UNL1        0.0000
     12 C          -0.4679    8.1080    5.3704 C.ar    1  UNL1        0.0000
     13 C           0.6742    8.8886    5.3408 C.ar    1  UNL1        0.0000
     14 C           1.9243   12.7071    4.3591 C.ar    1  UNL1        0.0000
     15 C           0.5903   13.1044    4.3880 C.ar    1  UNL1        0.0000
     16 C           0.2417   14.4433    4.3792 C.ar    1  UNL1        0.0000
     17 C           1.2268   15.4149    4.3415 C.ar    1  UNL1        0.0000
     18 C           2.5596   15.0392    4.3191 C.ar    1  UNL1        0.0000
     19 C           2.9039   13.6985    4.3309 C.ar    1  UNL1        0.0000
     20 C           1.9163   12.2517    0.9020 C.ar    1  UNL1        0.0000
     21 C           0.7013   11.8676    0.3383 C.ar    1  UNL1        0.0000
     22 C          -0.3045   12.7887    0.1050 C.ar    1  UNL1        0.0000
     23 C          -0.1103   14.1221    0.4239 C.ar    1  UNL1        0.0000
     24 C           1.0986   14.5273    0.9630 C.ar    1  UNL1        0.0000
     25 C           2.0974   13.6005    1.1987 C.ar    1  UNL1        0.0000
     26 C           2.9354    9.3618    0.3705 C.ar    1  UNL1        0.0000
     27 C           3.5942    9.0790   -0.8219 C.ar    1  UNL1        0.0000
     28 C           3.3172    7.9312   -1.5426 C.ar    1  UNL1        0.0000
     29 C           2.3577    7.0428   -1.0862 C.ar    1  UNL1        0.0000
     30 C           1.6859    7.3100    0.0947 C.ar    1  UNL1        0.0000
     31 C           1.9763    8.4569    0.8131 C.ar    1  UNL1        0.0000
     32 C           5.5531   14.1796    1.2245 C.ar    1  UNL1        0.0000
     33 C           5.2377   14.5069   -0.0908 C.ar    1  UNL1        0.0000
     34 C           5.0221   15.8192   -0.4713 C.ar    1  UNL1        0.0000
     35 C           5.1247   16.8372    0.4622 C.ar    1  UNL1        0.0000
     36 C           5.4456   16.5327    1.7741 C.ar    1  UNL1        0.0000
     37 C           5.6577   15.2171    2.1463 C.ar    1  UNL1        0.0000
     38 C           7.4885   11.7308    1.1582 C.ar    1  UNL1        0.0000
     39 C           8.6485   12.2962    1.6755 C.ar    1  UNL1        0.0000
     40 C           9.8969   11.7852    1.3714 C.ar    1  UNL1        0.0000
     41 C          10.0125   10.7042    0.5140 C.ar    1  UNL1        0.0000
     42 C           8.8729   10.1559   -0.0494 C.ar    1  UNL1        0.0000
     43 C           7.6268   10.6661    0.2724 C.ar    1  UNL1        0.0000
     44 H           0.0905   10.6203    2.5180 H       1  UNL1        0.0000
     45 H          -1.9410    9.2306    2.5488 H       1  UNL1        0.0000
     46 H          -2.3044    7.6163    4.3811 H       1  UNL1        0.0000
     47 H          -0.6278    7.4112    6.1812 H       1  UNL1        0.0000
     48 H           1.4060    8.8137    6.1313 H       1  UNL1        0.0000
     49 H          -0.1833   12.3511    4.4196 H       1  UNL1        0.0000
     50 H          -0.8002   14.7298    4.3991 H       1  UNL1        0.0000
     51 H           0.9562   16.4611    4.3321 H       1  UNL1        0.0000
     52 H           3.3283   15.7975    4.2821 H       1  UNL1        0.0000
     53 H           3.9434   13.3972    4.3152 H       1  UNL1        0.0000
     54 H           0.5506   10.8304    0.0728 H       1  UNL1        0.0000
     55 H          -1.2413   12.4670   -0.3277 H       1  UNL1        0.0000
     56 H          -0.8958   14.8420    0.2451 H       1  UNL1        0.0000
     57 H           1.2655   15.5671    1.2027 H       1  UNL1        0.0000
     58 H           3.0387   13.9227    1.6136 H       1  UNL1        0.0000
     59 H           4.3300    9.7817   -1.1811 H       1  UNL1        0.0000
     60 H           3.8411    7.7309   -2.4665 H       1  UNL1        0.0000
     61 H           2.1305    6.1499   -1.6511 H       1  UNL1        0.0000
     62 H           0.9305    6.6255    0.4546 H       1  UNL1        0.0000
     63 H           1.4521    8.6584    1.7356 H       1  UNL1        0.0000
     64 H           5.1458   13.7117   -0.8149 H       1  UNL1        0.0000
     65 H           4.7709   16.0517   -1.4965 H       1  UNL1        0.0000
     66 H           4.9554   17.8634    0.1677 H       1  UNL1        0.0000
     67 H           5.5295   17.3254    2.5050 H       1  UNL1        0.0000
     68 H           5.9032   14.9744    3.1681 H       1  UNL1        0.0000
     69 H           8.5656   13.1473    2.3317 H       1  UNL1        0.0000
     70 H          10.7807   12.2294    1.8058 H       1  UNL1        0.0000
     71 H          10.9856   10.2971    0.2794 H       1  UNL1        0.0000
     72 H           8.9577    9.3264   -0.7386 H       1  UNL1        0.0000
     73 H           6.7382   10.2412   -0.1721 H       1  UNL1        0.0000
@<TRIPOS>BOND
     1    60    28    1
     2    61    29    1
     3    28    29   ar
     4    28    27   ar
     5    65    34    1
     6    59    27    1
     7    29    30   ar
     8    27    26   ar
     9    64    33    1
    10    72    42    1
    11    34    33   ar
    12    34    35   ar
    13    55    22    1
    14    73    43    1
    15    33    32   ar
    16    42    43   ar
    17    42    41   ar
    18    54    21    1
    19    30    62    1
    20    30    31   ar
    21    22    21   ar
    22    22    23   ar
    23    66    35    1
    24    56    23    1
    25    43    38   ar
    26    71    41    1
    27    21    20   ar
    28    26    31   ar
    29    26     2    1
    30    23    24   ar
    31    35    36   ar
    32    41    40   ar
    33    31    63    1
    34     6     2    1
    35     6     3    1
    36    20    25   ar
    37    20     2    1
    38    24    25   ar
    39    24    57    1
    40    38    39   ar
    41    38     3    1
    42    25    58    1
    43    32     3    1
    44    32    37   ar
    45     2     5    1
    46    40    39   ar
    47    40    70    1
    48    39    69    1
    49     3     7    1
    50    36    37   ar
    51    36    67    1
    52    37    68    1
    53    44     9    1
    54    45    10    1
    55     5     1    1
    56     9    10   ar
    57     9     8   ar
    58    10    11   ar
    59    52    18    1
    60     8     1    1
    61     8    13   ar
    62    53    19    1
    63    18    19   ar
    64    18    17   ar
    65     1    14    1
    66     1     4    1
    67    19    14   ar
    68    51    17    1
    69    17    16   ar
    70    14    15   ar
    71    11    46    1
    72    11    12   ar
    73    16    15   ar
    74    16    50    1
    75    15    49    1
    76    13    12   ar
    77    13    48    1
    78    12    47    1
