@<TRIPOS>MOLECULE
1,2,3,19
 106 111 0 0 0
SMALL
GASTEIGER

@<TRIPOS>ATOM
      1 P           1.5298   19.5922    4.9042 P.3     1  UNL1        0.0000
      2 P           5.1887   19.1272    4.1192 P.3     1  UNL1        0.0000
      3 P           3.4190   16.7015    6.3931 P.3     1  UNL1        0.0000
      4 SI          3.6327   15.5499    3.6890 Si      1  UNL1        0.0000
      5 SI          3.5595   18.1004    1.8894 Si      1  UNL1        0.0000
      6 SI          0.9729   17.1490    3.3515 Si      1  UNL1        0.0000
      7 C           2.9323   14.1209    2.6202 C.3     1  UNL1        0.0000
      8 H           1.8742   13.9711    2.7993 H       1  UNL1        0.0000
      9 H           3.4400   13.1824    2.8192 H       1  UNL1        0.0000
     10 H           3.0577   14.3464    1.5688 H       1  UNL1        0.0000
     11 C           3.7109   17.0209    0.3125 C.3     1  UNL1        0.0000
     12 H           4.3655   16.1722    0.4725 H       1  UNL1        0.0000
     13 H           4.0992   17.5873   -0.5279 H       1  UNL1        0.0000
     14 H           2.7394   16.6363    0.0296 H       1  UNL1        0.0000
     15 C           2.6691   19.6853    1.2807 C.3     1  UNL1        0.0000
     16 H           2.5084   20.3786    2.1018 H       1  UNL1        0.0000
     17 H           1.7051   19.4449    0.8448 H       1  UNL1        0.0000
     18 H           3.2462   20.1995    0.5153 H       1  UNL1        0.0000
     19 C           2.8583   17.2534    3.4262 C.3     1  UNL1        0.0000
     20 C           5.5309   15.4020    3.4648 C.3     1  UNL1        0.0000
     21 H           6.0485   16.1810    4.0178 H       1  UNL1        0.0000
     22 H           5.8051   15.4875    2.4185 H       1  UNL1        0.0000
     23 H           5.9008   14.4405    3.8140 H       1  UNL1        0.0000
     24 C           0.0988   16.0324    4.6421 C.3     1  UNL1        0.0000
     25 H           0.4586   16.2427    5.6455 H       1  UNL1        0.0000
     26 H           0.2762   14.9832    4.4299 H       1  UNL1        0.0000
     27 H          -0.9787   16.1820    4.6340 H       1  UNL1        0.0000
     28 C           0.2169   16.5920    1.6803 C.3     1  UNL1        0.0000
     29 H           0.5840   15.6087    1.4151 H       1  UNL1        0.0000
     30 H           0.4833   17.2689    0.8773 H       1  UNL1        0.0000
     31 H          -0.8662   16.5387    1.7256 H       1  UNL1        0.0000
     32 C           5.3319   18.6185    2.3643 C.3     1  UNL1        0.0000
     33 H           5.9828   17.7491    2.3294 H       1  UNL1        0.0000
     34 H           5.7680   19.4020    1.7474 H       1  UNL1        0.0000
     35 C           1.4710   21.3948    4.4864 C.ar    1  UNL1        0.0000
     36 C           6.8938   18.7346    4.7244 C.ar    1  UNL1        0.0000
     37 C           0.4244   19.8232    6.3604 C.ar    1  UNL1        0.0000
     38 C           7.0670   18.4823    6.0793 C.ar    1  UNL1        0.0000
     39 H           6.1988   18.4860    6.7230 H       1  UNL1        0.0000
     40 C           0.3562   18.9261    3.6634 C.3     1  UNL1        0.0000
     41 H           0.4732   19.5136    2.7568 H       1  UNL1        0.0000
     42 H          -0.6769   19.0065    3.9967 H       1  UNL1        0.0000
     43 C           3.2597   15.1057    5.5056 C.3     1  UNL1        0.0000
     44 H           2.2243   14.7877    5.5912 H       1  UNL1        0.0000
     45 H           3.8952   14.3343    5.9364 H       1  UNL1        0.0000
     46 C           6.1339   21.5620    5.1148 C.ar    1  UNL1        0.0000
     47 H           6.3676   20.9821    5.9969 H       1  UNL1        0.0000
     48 C           4.8846   16.3771    7.4627 C.ar    1  UNL1        0.0000
     49 C           0.3521   22.0056    3.9289 C.ar    1  UNL1        0.0000
     50 H          -0.5276   21.4196    3.7028 H       1  UNL1        0.0000
     51 C           4.9957   17.0643    8.6730 C.ar    1  UNL1        0.0000
     52 H           4.2107   17.7457    8.9706 H       1  UNL1        0.0000
     53 C           5.5671   20.9276    4.0077 C.ar    1  UNL1        0.0000
     54 C           5.9359   15.5510    7.0758 C.ar    1  UNL1        0.0000
     55 H           5.9031   15.0501    6.1212 H       1  UNL1        0.0000
     56 C           8.3231   18.2315    6.6001 C.ar    1  UNL1        0.0000
     57 H           8.4391   18.0465    7.6587 H       1  UNL1        0.0000
     58 C           2.5721   22.1796    4.8038 C.ar    1  UNL1        0.0000
     59 H           3.4365   21.7056    5.2467 H       1  UNL1        0.0000
     60 C           2.2447   16.4281    7.7980 C.ar    1  UNL1        0.0000
     61 C           5.2230   21.7065    2.9067 C.ar    1  UNL1        0.0000
     62 H           4.7341   21.2530    2.0589 H       1  UNL1        0.0000
     63 C          -0.6538   18.9865    6.6331 C.ar    1  UNL1        0.0000
     64 H          -0.8852   18.1726    5.9642 H       1  UNL1        0.0000
     65 C           6.3930   22.9182    5.0980 C.ar    1  UNL1        0.0000
     66 H           6.8384   23.3908    5.9635 H       1  UNL1        0.0000
     67 C           5.4908   23.0625    2.8870 C.ar    1  UNL1        0.0000
     68 H           5.2265   23.6490    2.0166 H       1  UNL1        0.0000
     69 C           9.4260   18.2129    5.7636 C.ar    1  UNL1        0.0000
     70 H          10.4098   18.0061    6.1636 H       1  UNL1        0.0000
     71 C           8.0124   18.7416    3.8970 C.ar    1  UNL1        0.0000
     72 H           7.9061   18.9661    2.8451 H       1  UNL1        0.0000
     73 C           2.5669   23.5411    4.5620 C.ar    1  UNL1        0.0000
     74 H           3.4301   24.1367    4.8235 H       1  UNL1        0.0000
     75 C           0.7366   20.8217    7.2850 C.ar    1  UNL1        0.0000
     76 H           1.5977   21.4530    7.1137 H       1  UNL1        0.0000
     77 C           1.4589   24.1348    3.9820 C.ar    1  UNL1        0.0000
     78 H           1.4531   25.1980    3.7810 H       1  UNL1        0.0000
     79 C           6.0877   23.6738    3.9769 C.ar    1  UNL1        0.0000
     80 H           6.3021   24.7343    3.9582 H       1  UNL1        0.0000
     81 C           7.0328   15.3688    7.8971 C.ar    1  UNL1        0.0000
     82 H           7.8346   14.7127    7.5836 H       1  UNL1        0.0000
     83 C           0.3519   23.3632    3.6679 C.ar    1  UNL1        0.0000
     84 H          -0.5207   23.8264    3.2247 H       1  UNL1        0.0000
     85 C           6.0957   16.8887    9.4889 C.ar    1  UNL1        0.0000
     86 H           6.1602   17.4256   10.4261 H       1  UNL1        0.0000
     87 C          -0.0362   21.0077    8.4141 C.ar    1  UNL1        0.0000
     88 H           0.2176   21.7915    9.1156 H       1  UNL1        0.0000
     89 C           7.1136   16.0264    9.1131 C.ar    1  UNL1        0.0000
     90 H           7.9699   15.8783    9.7579 H       1  UNL1        0.0000
     91 C          -1.4321   19.1785    7.7592 C.ar    1  UNL1        0.0000
     92 H          -2.2739   18.5248    7.9476 H       1  UNL1        0.0000
     93 C           1.6966   17.5437    8.4189 C.ar    1  UNL1        0.0000
     94 H           1.9396   18.5241    8.0344 H       1  UNL1        0.0000
     95 C          -1.1357   20.1972    8.6492 C.ar    1  UNL1        0.0000
     96 H          -1.7496   20.3507    9.5270 H       1  UNL1        0.0000
     97 C           1.9394   15.1667    8.2994 C.ar    1  UNL1        0.0000
     98 H           2.3776   14.2856    7.8524 H       1  UNL1        0.0000
     99 C           9.2665   18.4699    4.4116 C.ar    1  UNL1        0.0000
    100 H          10.1284   18.4668    3.7563 H       1  UNL1        0.0000
    101 C           0.5375   16.1480    9.9829 C.ar    1  UNL1        0.0000
    102 H          -0.1285   16.0363   10.8283 H       1  UNL1        0.0000
    103 C           1.0819   15.0285    9.3753 C.ar    1  UNL1        0.0000
    104 H           0.8425   14.0410    9.7496 H       1  UNL1        0.0000
    105 C           0.8566   17.4090    9.5088 C.ar    1  UNL1        0.0000
    106 H           0.4480   18.2893    9.9845 H       1  UNL1        0.0000
@<TRIPOS>BOND
     1    13    11    1
     2    14    11    1
     3    11    12    1
     4    11     5    1
     5    18    15    1
     6    17    15    1
     7    30    28    1
     8    15     5    1
     9    15    16    1
    10    29    28    1
    11    10     7    1
    12    28    31    1
    13    28     6    1
    14    34    32    1
    15     5    32    1
    16     5    19    1
    17    68    67    1
    18    62    61    1
    19    33    32    1
    20    32     2    1
    21    22    20    1
    22     7     8    1
    23     7     9    1
    24     7     4    1
    25    41    40    1
    26    72    71    1
    27    67    61   ar
    28    67    79   ar
    29    61    53   ar
    30    84    83    1
    31     6    19    1
    32     6    40    1
    33     6    24    1
    34    19     4    1
    35    20     4    1
    36    20    23    1
    37    20    21    1
    38    40    42    1
    39    40     1    1
    40    83    49   ar
    41    83    77   ar
    42     4    43    1
    43    50    49    1
    44   100    99    1
    45    78    77    1
    46    71    99   ar
    47    71    36   ar
    48    49    35   ar
    49    80    79    1
    50    79    65   ar
    51    77    73   ar
    52    53     2    1
    53    53    46   ar
    54     2    36    1
    55    99    69   ar
    56    26    24    1
    57    35    58   ar
    58    35     1    1
    59    73    58   ar
    60    73    74    1
    61    27    24    1
    62    24    25    1
    63    36    38   ar
    64    58    59    1
    65     1    37    1
    66    65    46   ar
    67    65    66    1
    68    46    47    1
    69    43    44    1
    70    43    45    1
    71    43     3    1
    72    69    70    1
    73    69    56   ar
    74    64    63    1
    75    38    56   ar
    76    38    39    1
    77    55    54    1
    78    37    63   ar
    79    37    75   ar
    80     3    48    1
    81     3    60    1
    82    56    57    1
    83    63    91   ar
    84    54    48   ar
    85    54    81   ar
    86    76    75    1
    87    75    87   ar
    88    48    51   ar
    89    82    81    1
    90    91    92    1
    91    91    95   ar
    92    60    97   ar
    93    60    93   ar
    94    98    97    1
    95    81    89   ar
    96    94    93    1
    97    97   103   ar
    98    87    95   ar
    99    87    88    1
   100    93   105   ar
   101    95    96    1
   102    51    52    1
   103    51    85   ar
   104    89    85   ar
   105    89    90    1
   106   103   104    1
   107   103   101   ar
   108    85    86    1
   109   105   101   ar
   110   105   106    1
   111   101   102    1
