@<TRIPOS>MOLECULE
1,3,37,72
 106 111 0 0 0
SMALL
GASTEIGER

@<TRIPOS>ATOM
      1 P          -6.2198   18.0754    3.4308 P.3     1  UNL1        0.0000
      2 SI         -6.9187   18.1922    0.6306 Si      1  UNL1        0.0000
      3 C          -6.9632   20.0191    1.1342 C.3     1  UNL1        0.0000
      4 C          -7.3066   15.4401    3.4425 C.ar    1  UNL1        0.0000
      5 H          -6.6242   15.1911    2.6454 H       1  UNL1        0.0000
      6 C          -8.1387   14.4509    3.9333 C.ar    1  UNL1        0.0000
      7 H          -8.0973   13.4586    3.5065 H       1  UNL1        0.0000
      8 C          -4.1755   17.1448    6.8525 C.ar    1  UNL1        0.0000
      9 H          -4.3924   17.1437    7.9109 H       1  UNL1        0.0000
     10 C          -5.1373   17.5688    5.9559 C.ar    1  UNL1        0.0000
     11 H          -6.0947   17.9129    6.3157 H       1  UNL1        0.0000
     12 C          -9.0142   14.7215    4.9713 C.ar    1  UNL1        0.0000
     13 H          -9.6598   13.9445    5.3539 H       1  UNL1        0.0000
     14 C          -5.5962   17.5197    1.8235 C.3     1  UNL1        0.0000
     15 H          -5.3914   16.4547    1.7859 H       1  UNL1        0.0000
     16 H          -4.6725   18.0594    1.6502 H       1  UNL1        0.0000
     17 C          -6.3827   17.8162   -1.1619 C.3     1  UNL1        0.0000
     18 H          -7.1166   18.1972   -1.8590 H       1  UNL1        0.0000
     19 H          -6.2927   16.7488   -1.3325 H       1  UNL1        0.0000
     20 H          -5.4337   18.2731   -1.4096 H       1  UNL1        0.0000
     21 C          -4.8769   17.5784    4.5865 C.ar    1  UNL1        0.0000
     22 C          -7.3513   16.7285    3.9669 C.ar    1  UNL1        0.0000
     23 C          -8.4886   17.1415    0.9097 C.3     1  UNL1        0.0000
     24 H          -9.2474   17.3512    0.1637 H       1  UNL1        0.0000
     25 H          -8.9038   17.3269    1.8964 H       1  UNL1        0.0000
     26 H          -8.2655   16.0803    0.8489 H       1  UNL1        0.0000
     27 C          -3.6254   17.1678    4.1411 C.ar    1  UNL1        0.0000
     28 H          -3.3852   17.1799    3.0891 H       1  UNL1        0.0000
     29 C          -2.6660   16.7373    5.0406 C.ar    1  UNL1        0.0000
     30 H          -1.6999   16.4161    4.6776 H       1  UNL1        0.0000
     31 C          -8.2253   16.9841    5.0184 C.ar    1  UNL1        0.0000
     32 H          -8.2559   17.9714    5.4508 H       1  UNL1        0.0000
     33 C          -2.9380   16.7191    6.3970 C.ar    1  UNL1        0.0000
     34 H          -2.1880   16.3787    7.0965 H       1  UNL1        0.0000
     35 C          -9.0459   15.9904    5.5202 C.ar    1  UNL1        0.0000
     36 H          -9.7130   16.2117    6.3400 H       1  UNL1        0.0000
     37 P          -5.2189   21.4245    3.3634 P.3     1  UNL1        0.0000
     38 C          -2.3773   21.5155    3.0334 C.ar    1  UNL1        0.0000
     39 H          -2.5157   22.1083    2.1429 H       1  UNL1        0.0000
     40 C          -1.0918   21.2315    3.4587 C.ar    1  UNL1        0.0000
     41 H          -0.2483   21.6050    2.8954 H       1  UNL1        0.0000
     42 C          -5.3124   23.6116    6.8472 C.ar    1  UNL1        0.0000
     43 H          -5.2992   23.3888    7.9038 H       1  UNL1        0.0000
     44 C          -5.2685   22.5770    5.9322 C.ar    1  UNL1        0.0000
     45 H          -5.2331   21.5611    6.2891 H       1  UNL1        0.0000
     46 C          -0.8813   20.4820    4.6037 C.ar    1  UNL1        0.0000
     47 H           0.1250   20.2700    4.9340 H       1  UNL1        0.0000
     48 C          -5.1990   22.2889    1.7599 C.3     1  UNL1        0.0000
     49 H          -4.3314   22.9301    1.6321 H       1  UNL1        0.0000
     50 H          -6.0986   22.9032    1.7196 H       1  UNL1        0.0000
     51 C          -5.2971   22.8334    4.5636 C.ar    1  UNL1        0.0000
     52 C          -3.4712   21.0347    3.7434 C.ar    1  UNL1        0.0000
     53 C          -5.3587   24.1577    4.1402 C.ar    1  UNL1        0.0000
     54 H          -5.3810   24.4028    3.0890 H       1  UNL1        0.0000
     55 C          -5.3937   25.1933    5.0585 C.ar    1  UNL1        0.0000
     56 H          -5.4390   26.2151    4.7074 H       1  UNL1        0.0000
     57 C          -3.2499   20.2797    4.8915 C.ar    1  UNL1        0.0000
     58 H          -4.0967   19.8984    5.4418 H       1  UNL1        0.0000
     59 C          -5.3746   24.9254    6.4153 C.ar    1  UNL1        0.0000
     60 H          -5.4080   25.7351    7.1296 H       1  UNL1        0.0000
     61 C          -1.9656   20.0102    5.3239 C.ar    1  UNL1        0.0000
     62 H          -1.8131   19.4287    6.2208 H       1  UNL1        0.0000
     63 SI         -5.4089   20.8892    0.4820 Si      1  UNL1        0.0000
     64 C          -5.5449   21.6431   -1.2659 C.3     1  UNL1        0.0000
     65 H          -5.6606   20.8495   -1.9934 H       1  UNL1        0.0000
     66 H          -4.6524   22.2003   -1.5307 H       1  UNL1        0.0000
     67 H          -6.3926   22.3075   -1.3702 H       1  UNL1        0.0000
     68 C          -3.7175   19.9894    0.4225 C.3     1  UNL1        0.0000
     69 H          -3.7551   19.1062   -0.2048 H       1  UNL1        0.0000
     70 H          -3.3682   19.6954    1.4070 H       1  UNL1        0.0000
     71 H          -2.9620   20.6463   -0.0014 H       1  UNL1        0.0000
     72 P          -9.2372   19.8254    3.1564 P.3     1  UNL1        0.0000
     73 C         -10.9243   21.8971    4.1618 C.ar    1  UNL1        0.0000
     74 H         -11.7364   21.1833    4.1476 H       1  UNL1        0.0000
     75 C         -11.1538   23.1950    4.5816 C.ar    1  UNL1        0.0000
     76 H         -12.1460   23.4906    4.8910 H       1  UNL1        0.0000
     77 C         -11.5419   18.3992    6.2037 C.ar    1  UNL1        0.0000
     78 H         -11.6485   18.6025    7.2595 H       1  UNL1        0.0000
     79 C         -10.6176   19.1054    5.4595 C.ar    1  UNL1        0.0000
     80 H          -9.9935   19.8504    5.9330 H       1  UNL1        0.0000
     81 C         -10.1169   24.1129    4.6154 C.ar    1  UNL1        0.0000
     82 H         -10.2961   25.1207    4.9597 H       1  UNL1        0.0000
     83 C          -9.9711   20.0508    1.5016 C.3     1  UNL1        0.0000
     84 H         -10.8568   20.6802    1.5790 H       1  UNL1        0.0000
     85 H         -10.2630   19.0964    1.0801 H       1  UNL1        0.0000
     86 C         -10.4776   18.8631    4.0927 C.ar    1  UNL1        0.0000
     87 C          -9.6494   21.5042    3.7701 C.ar    1  UNL1        0.0000
     88 C         -11.2579   17.8786    3.4989 C.ar    1  UNL1        0.0000
     89 H         -11.1571   17.6624    2.4453 H       1  UNL1        0.0000
     90 C         -12.1795   17.1691    4.2488 C.ar    1  UNL1        0.0000
     91 H         -12.7846   16.4098    3.7745 H       1  UNL1        0.0000
     92 C          -8.6267   22.4446    3.7726 C.ar    1  UNL1        0.0000
     93 H          -7.6329   22.1479    3.4284 H       1  UNL1        0.0000
     94 C         -12.3291   17.4312    5.5992 C.ar    1  UNL1        0.0000
     95 H         -13.0536   16.8797    6.1807 H       1  UNL1        0.0000
     96 C          -8.8487   23.7387    4.2035 C.ar    1  UNL1        0.0000
     97 H          -8.0360   24.4502    4.2237 H       1  UNL1        0.0000
     98 SI         -8.5500   20.8104    0.4639 Si      1  UNL1        0.0000
     99 C          -8.9808   20.3729   -1.3452 C.3     1  UNL1        0.0000
    100 H          -8.1697   20.6453   -2.0070 H       1  UNL1        0.0000
    101 H          -9.8660   20.9057   -1.6772 H       1  UNL1        0.0000
    102 H          -9.1675   19.3133   -1.4727 H       1  UNL1        0.0000
    103 C          -8.7197   22.7199    0.5152 C.3     1  UNL1        0.0000
    104 H          -8.0025   23.1847   -0.1517 H       1  UNL1        0.0000
    105 H          -8.5841   23.1485    1.5010 H       1  UNL1        0.0000
    106 H          -9.7100   23.0116    0.1758 H       1  UNL1        0.0000
@<TRIPOS>BOND
     1   100    99    1
     2    65    64    1
     3    18    17    1
     4   101    99    1
     5    66    64    1
     6   102    99    1
     7    20    17    1
     8    67    64    1
     9    99    98    1
    10    19    17    1
    11    64    63    1
    12    17     2    1
    13    69    68    1
    14   104   103    1
    15    71    68    1
    16    24    23    1
    17   106   103    1
    18    68    63    1
    19    68    70    1
    20    98   103    1
    21    98     3    1
    22    98    83    1
    23    63     3    1
    24    63    48    1
    25   103   105    1
    26     2    23    1
    27     2     3    1
    28     2    14    1
    29    26    23    1
    30    23    25    1
    31    85    83    1
    32    83    84    1
    33    83    72    1
    34    49    48    1
    35    16    14    1
    36    50    48    1
    37    48    37    1
    38    15    14    1
    39    14     1    1
    40    39    38    1
    41    89    88    1
    42     5     4    1
    43    41    40    1
    44    38    40   ar
    45    38    52   ar
    46    54    53    1
    47    28    27    1
    48    72    87    1
    49    72    86    1
    50    37    52    1
    51    37    51    1
    52    93    92    1
    53     1    22    1
    54     1    21    1
    55     4     6   ar
    56     4    22   ar
    57    40    46   ar
    58    88    86   ar
    59    88    90   ar
    60     7     6    1
    61    52    57   ar
    62    87    92   ar
    63    87    73   ar
    64    92    96   ar
    65    91    90    1
    66     6    12   ar
    67    22    31   ar
    68    86    79   ar
    69    53    51   ar
    70    53    55   ar
    71    27    21   ar
    72    27    29   ar
    73    74    73    1
    74    73    75   ar
    75    96    97    1
    76    96    81   ar
    77    90    94   ar
    78    51    44   ar
    79    75    81   ar
    80    75    76    1
    81    21    10   ar
    82    46    47    1
    83    46    61   ar
    84    81    82    1
    85    30    29    1
    86    56    55    1
    87    57    61   ar
    88    57    58    1
    89    12    13    1
    90    12    35   ar
    91    31    32    1
    92    31    35   ar
    93    29    33   ar
    94    55    59   ar
    95    61    62    1
    96    79    80    1
    97    79    77   ar
    98    35    36    1
    99    94    95    1
   100    94    77   ar
   101    44    45    1
   102    44    42   ar
   103    10    11    1
   104    10     8   ar
   105    77    78    1
   106    33     8   ar
   107    33    34    1
   108    59    42   ar
   109    59    60    1
   110    42    43    1
   111     8     9    1
