@<TRIPOS>MOLECULE
3,100
 130 140 0 0 0
SMALL
GASTEIGER

@<TRIPOS>ATOM
      1 P          -9.9487  -19.1158   -0.6671 P.3     1  UNL1        0.0000
      2 P         -12.4179  -17.0388   -0.6658 P.3     1  UNL1        0.0000
      3 P         -10.3035  -17.1108   -3.0387 P.3     1  UNL1        0.0000
      4 SI        -11.6085  -21.0744   -2.2801 Si      1  UNL1        0.0000
      5 N          -9.7011  -16.3018   -0.5171 N.3     1  UNL1        0.0000
      6 C          -8.9631  -17.5390   -0.3948 C.3     1  UNL1        0.0000
      7 H          -8.4925  -17.5581    0.5947 H       1  UNL1        0.0000
      8 H          -8.1653  -17.5146   -1.1493 H       1  UNL1        0.0000
      9 C         -10.9540  -16.2379    0.1957 C.3     1  UNL1        0.0000
     10 H         -11.1583  -15.1788    0.3847 H       1  UNL1        0.0000
     11 H         -10.8171  -16.7496    1.1564 H       1  UNL1        0.0000
     12 C          -9.7442  -15.7835   -1.8686 C.3     1  UNL1        0.0000
     13 H          -8.7437  -15.4116   -2.1248 H       1  UNL1        0.0000
     14 H         -10.4553  -14.9512   -1.9105 H       1  UNL1        0.0000
     15 C          -8.5624  -20.2516   -1.2204 C.3     1  UNL1        0.0000
     16 H          -7.6697  -19.6086   -1.2731 H       1  UNL1        0.0000
     17 C          -8.3237  -21.2769   -0.1011 C.3     1  UNL1        0.0000
     18 H          -9.0256  -22.1061   -0.2037 H       1  UNL1        0.0000
     19 H          -7.3098  -21.6770   -0.1646 H       1  UNL1        0.0000
     20 C          -8.5748  -20.5556    1.2072 C.3     1  UNL1        0.0000
     21 H          -7.8042  -19.7986    1.3700 H       1  UNL1        0.0000
     22 H          -8.5660  -21.2397    2.0582 H       1  UNL1        0.0000
     23 C          -9.9570  -19.9183    1.0512 C.3     1  UNL1        0.0000
     24 H         -10.6769  -20.7354    0.8923 H       1  UNL1        0.0000
     25 C          -8.6945  -20.9791   -2.5317 C.ar    1  UNL1        0.0000
     26 C          -9.8847  -21.5541   -2.9849 C.ar    1  UNL1        0.0000
     27 C          -9.8318  -22.3454   -4.1303 C.ar    1  UNL1        0.0000
     28 H         -10.7443  -22.8041   -4.4808 H       1  UNL1        0.0000
     29 C          -8.6571  -22.5551   -4.8271 C.ar    1  UNL1        0.0000
     30 H          -8.6530  -23.1768   -5.7106 H       1  UNL1        0.0000
     31 C          -7.4896  -21.9547   -4.3908 C.ar    1  UNL1        0.0000
     32 H          -6.5633  -22.0933   -4.9297 H       1  UNL1        0.0000
     33 C          -7.5156  -21.1833   -3.2450 C.ar    1  UNL1        0.0000
     34 H          -6.5952  -20.7368   -2.8875 H       1  UNL1        0.0000
     35 C         -10.3936  -19.1702    2.2720 C.ar    1  UNL1        0.0000
     36 C         -11.6112  -19.5018    2.8646 C.ar    1  UNL1        0.0000
     37 H         -12.2295  -20.2560    2.3994 H       1  UNL1        0.0000
     38 C         -12.0236  -18.8995    4.0404 C.ar    1  UNL1        0.0000
     39 H         -12.9615  -19.1877    4.4934 H       1  UNL1        0.0000
     40 C         -11.2339  -17.9385    4.6474 C.ar    1  UNL1        0.0000
     41 H         -11.5563  -17.4638    5.5620 H       1  UNL1        0.0000
     42 C         -10.0146  -17.6112    4.0818 C.ar    1  UNL1        0.0000
     43 H          -9.3768  -16.8794    4.5560 H       1  UNL1        0.0000
     44 C          -9.5926  -18.2313    2.9186 C.ar    1  UNL1        0.0000
     45 H          -8.6136  -17.9852    2.5355 H       1  UNL1        0.0000
     46 C         -13.4220  -17.4463    0.8483 C.3     1  UNL1        0.0000
     47 H         -12.7406  -17.8564    1.6030 H       1  UNL1        0.0000
     48 C         -13.9789  -16.0929    1.3019 C.3     1  UNL1        0.0000
     49 H         -14.7440  -16.2252    2.0699 H       1  UNL1        0.0000
     50 H         -13.1753  -15.4868    1.7266 H       1  UNL1        0.0000
     51 C         -14.5576  -15.4267    0.0600 C.3     1  UNL1        0.0000
     52 H         -14.7709  -14.3718    0.2403 H       1  UNL1        0.0000
     53 H         -15.5000  -15.9156   -0.1925 H       1  UNL1        0.0000
     54 C         -13.5667  -15.5854   -1.1100 C.3     1  UNL1        0.0000
     55 H         -14.0962  -15.9520   -2.0010 H       1  UNL1        0.0000
     56 C         -14.5372  -18.4309    0.6306 C.ar    1  UNL1        0.0000
     57 C         -14.9616  -19.2249    1.6910 C.ar    1  UNL1        0.0000
     58 H         -14.4745  -19.1326    2.6505 H       1  UNL1        0.0000
     59 C         -15.9998  -20.1249    1.5319 C.ar    1  UNL1        0.0000
     60 H         -16.3146  -20.7353    2.3664 H       1  UNL1        0.0000
     61 C         -16.6329  -20.2453    0.3064 C.ar    1  UNL1        0.0000
     62 H         -17.4357  -20.9561    0.1775 H       1  UNL1        0.0000
     63 C         -16.2327  -19.4457   -0.7491 C.ar    1  UNL1        0.0000
     64 H         -16.7238  -19.5264   -1.7076 H       1  UNL1        0.0000
     65 C         -15.1984  -18.5403   -0.5848 C.ar    1  UNL1        0.0000
     66 H         -14.8910  -17.9258   -1.4189 H       1  UNL1        0.0000
     67 C         -12.9103  -14.2966   -1.4999 C.ar    1  UNL1        0.0000
     68 C         -12.4217  -13.3884   -0.5619 C.ar    1  UNL1        0.0000
     69 H         -12.5362  -13.5803    0.4954 H       1  UNL1        0.0000
     70 C         -11.8172  -12.2100   -0.9630 C.ar    1  UNL1        0.0000
     71 H         -11.4383  -11.5248   -0.2185 H       1  UNL1        0.0000
     72 C         -11.7053  -11.9026   -2.3078 C.ar    1  UNL1        0.0000
     73 H         -11.2297  -10.9843   -2.6183 H       1  UNL1        0.0000
     74 C         -12.2371  -12.7684   -3.2480 C.ar    1  UNL1        0.0000
     75 H         -12.1932  -12.5200   -4.2989 H       1  UNL1        0.0000
     76 C         -12.8396  -13.9471   -2.8461 C.ar    1  UNL1        0.0000
     77 H         -13.2830  -14.6048   -3.5799 H       1  UNL1        0.0000
     78 C          -8.8110  -17.6532   -4.0091 C.3     1  UNL1        0.0000
     79 H          -8.4901  -18.6219   -3.6016 H       1  UNL1        0.0000
     80 C          -9.4314  -17.8934   -5.3958 C.3     1  UNL1        0.0000
     81 H          -8.6541  -18.0264   -6.1510 H       1  UNL1        0.0000
     82 H         -10.0234  -18.8126   -5.3498 H       1  UNL1        0.0000
     83 C         -10.3523  -16.7265   -5.7395 C.3     1  UNL1        0.0000
     84 H         -11.0246  -17.0089   -6.5518 H       1  UNL1        0.0000
     85 H          -9.7610  -15.8753   -6.0824 H       1  UNL1        0.0000
     86 C         -11.1670  -16.3567   -4.4811 C.3     1  UNL1        0.0000
     87 H         -11.2179  -15.2651   -4.3695 H       1  UNL1        0.0000
     88 C          -7.6333  -16.7288   -4.0405 C.ar    1  UNL1        0.0000
     89 C          -6.3589  -17.2499   -3.8373 C.ar    1  UNL1        0.0000
     90 H          -6.2460  -18.3075   -3.6425 H       1  UNL1        0.0000
     91 C          -5.2395  -16.4399   -3.8952 C.ar    1  UNL1        0.0000
     92 H          -4.2594  -16.8663   -3.7382 H       1  UNL1        0.0000
     93 C          -5.3741  -15.0871   -4.1564 C.ar    1  UNL1        0.0000
     94 H          -4.5018  -14.4526   -4.2040 H       1  UNL1        0.0000
     95 C          -6.6358  -14.5537   -4.3541 C.ar    1  UNL1        0.0000
     96 H          -6.7518  -13.4983   -4.5541 H       1  UNL1        0.0000
     97 C          -7.7546  -15.3658   -4.2943 C.ar    1  UNL1        0.0000
     98 H          -8.7330  -14.9299   -4.4361 H       1  UNL1        0.0000
     99 C         -12.5690  -16.9389   -4.5164 C.ar    1  UNL1        0.0000
    100 C         -12.9629  -17.9701   -3.6489 C.ar    1  UNL1        0.0000
    101 C         -14.2322  -18.5117   -3.8670 C.ar    1  UNL1        0.0000
    102 H         -14.5574  -19.3564   -3.2736 H       1  UNL1        0.0000
    103 C         -15.0917  -18.0244   -4.8369 C.ar    1  UNL1        0.0000
    104 H         -16.0657  -18.4760   -4.9671 H       1  UNL1        0.0000
    105 C         -14.7055  -16.9655   -5.6384 C.ar    1  UNL1        0.0000
    106 H         -15.3728  -16.5649   -6.3883 H       1  UNL1        0.0000
    107 C         -13.4382  -16.4381   -5.4807 C.ar    1  UNL1        0.0000
    108 H         -13.1101  -15.6270   -6.1208 H       1  UNL1        0.0000
    109 C         -12.8832  -21.7314   -3.5372 C.ar    1  UNL1        0.0000
    110 C         -13.8417  -22.6667   -3.1717 C.ar    1  UNL1        0.0000
    111 H         -13.8415  -23.0577   -2.1647 H       1  UNL1        0.0000
    112 C         -14.7972  -23.1050   -4.0721 C.ar    1  UNL1        0.0000
    113 H         -15.5349  -23.8330   -3.7639 H       1  UNL1        0.0000
    114 C         -14.8098  -22.6116   -5.3650 C.ar    1  UNL1        0.0000
    115 H         -15.5559  -22.9503   -6.0700 H       1  UNL1        0.0000
    116 C         -13.8606  -21.6784   -5.7478 C.ar    1  UNL1        0.0000
    117 H         -13.8649  -21.2836   -6.7542 H       1  UNL1        0.0000
    118 C         -12.9133  -21.2452   -4.8396 C.ar    1  UNL1        0.0000
    119 H         -12.1838  -20.5081   -5.1453 H       1  UNL1        0.0000
    120 C         -11.8808  -22.1994   -0.7520 C.ar    1  UNL1        0.0000
    121 C         -11.1831  -23.3955   -0.6128 C.ar    1  UNL1        0.0000
    122 H         -10.4589  -23.6742   -1.3663 H       1  UNL1        0.0000
    123 C         -11.4102  -24.2357    0.4635 C.ar    1  UNL1        0.0000
    124 H         -10.8534  -25.1578    0.5556 H       1  UNL1        0.0000
    125 C         -12.3551  -23.9002    1.4187 C.ar    1  UNL1        0.0000
    126 H         -12.5352  -24.5556    2.2589 H       1  UNL1        0.0000
    127 C         -13.0744  -22.7243    1.2846 C.ar    1  UNL1        0.0000
    128 H         -13.8266  -22.4617    2.0160 H       1  UNL1        0.0000
    129 C         -12.8351  -21.8856    0.2103 C.ar    1  UNL1        0.0000
    130 H         -13.3989  -20.9682    0.1114 H       1  UNL1        0.0000
@<TRIPOS>BOND
     1   117   116    1
     2    84    83    1
     3   106   105    1
     4    81    80    1
     5   108   107    1
     6    85    83    1
     7   115   114    1
     8   116   114   ar
     9   116   118   ar
    10    83    80    1
    11    83    86    1
    12    30    29    1
    13   105   107   ar
    14   105   103   ar
    15   107    99   ar
    16    80    82    1
    17    80    78    1
    18   114   112   ar
    19   119   118    1
    20   104   103    1
    21    32    31    1
    22   118   109   ar
    23   103   101   ar
    24    29    31   ar
    25    29    27   ar
    26    96    95    1
    27    99    86    1
    28    99   100   ar
    29    86    87    1
    30    86     3    1
    31    28    27    1
    32    98    97    1
    33    31    33   ar
    34    95    97   ar
    35    95    93   ar
    36    75    74    1
    37    97    88   ar
    38    94    93    1
    39    93    91   ar
    40    27    26   ar
    41   112   113    1
    42   112   110   ar
    43    88    78    1
    44    88    89   ar
    45    78    79    1
    46    78     3    1
    47    91    89   ar
    48    91    92    1
    49   101   100   ar
    50   101   102    1
    51    89    90    1
    52    77    76    1
    53   109   110   ar
    54   109     4    1
    55    74    76   ar
    56    74    72   ar
    57    33    34    1
    58    33    25   ar
    59   110   111    1
    60     3    12    1
    61    26    25   ar
    62    26     4    1
    63    76    67   ar
    64    73    72    1
    65    25    15    1
    66    72    70   ar
    67     4   120    1
    68    13    12    1
    69    55    54    1
    70    14    12    1
    71    12     5    1
    72    64    63    1
    73    67    54    1
    74    67    68   ar
    75    66    65    1
    76   122   121    1
    77    16    15    1
    78    15     1    1
    79    15    17    1
    80     8     6    1
    81    54     2    1
    82    54    51    1
    83    70    68   ar
    84    70    71    1
    85   120   121   ar
    86   120   129   ar
    87    63    65   ar
    88    63    61   ar
    89     1     6    1
    90     1    23    1
    91     2     9    1
    92     2    46    1
    93   121   123   ar
    94    65    56   ar
    95    68    69    1
    96     5     6    1
    97     5     9    1
    98     6     7    1
    99    18    17    1
   100    53    51    1
   101    19    17    1
   102    17    20    1
   103    51    52    1
   104    51    48    1
   105   130   129    1
   106    62    61    1
   107     9    10    1
   108     9    11    1
   109   129   127   ar
   110    61    59   ar
   111   123   124    1
   112   123   125   ar
   113    56    46    1
   114    56    57   ar
   115    46    48    1
   116    46    47    1
   117    24    23    1
   118    23    20    1
   119    23    35    1
   120    20    21    1
   121    20    22    1
   122   127   125   ar
   123   127   128    1
   124    48    50    1
   125    48    49    1
   126   125   126    1
   127    59    57   ar
   128    59    60    1
   129    57    58    1
   130    35    36   ar
   131    35    44   ar
   132    37    36    1
   133    45    44    1
   134    36    38   ar
   135    44    42   ar
   136    38    39    1
   137    38    40   ar
   138    42    43    1
   139    42    40   ar
   140    40    41    1
