@<TRIPOS>MOLECULE
5,6,7,8,10,11,13
 50 52 0 0 0
SMALL
GASTEIGER

@<TRIPOS>ATOM
      1 SI          5.6432    3.0848    5.4344 Si      1  UNL1        0.0000
      2 SI         -0.1970    3.3823    5.0719 Si      1  UNL1        0.0000
      3 O           6.2319    2.5922    6.8898 O.3     1  UNL1        0.0000
      4 O          -0.5638    3.3979    6.6866 O.3     1  UNL1        0.0000
      5 O           3.8690    1.5427    7.7725 O.3     1  UNL1        0.0000
      6 O           1.9172    3.4042    7.8379 O.3     1  UNL1        0.0000
      7 C           3.8547    2.6012    5.1082 C.3     1  UNL1        0.0000
      8 C           2.7367    3.4736    5.1193 C.3     1  UNL1        0.0000
      9 H           2.7882    4.5545    5.2009 H       1  UNL1        0.0000
     10 C           1.5553    2.7307    4.8902 C.3     1  UNL1        0.0000
     11 C           1.9535    1.3726    4.7418 C.2     1  UNL1        0.0000
     12 H           1.2995    0.5637    4.4357 H       1  UNL1        0.0000
     13 C           3.3498    1.2979    4.8698 C.2     1  UNL1        0.0000
     14 H           3.9569    0.4130    4.7158 H       1  UNL1        0.0000
     15 C           6.8438    2.2303    4.2373 C.3     1  UNL1        0.0000
     16 H           7.8627    2.5528    4.4194 H       1  UNL1        0.0000
     17 H           6.5958    2.4745    3.2108 H       1  UNL1        0.0000
     18 H           6.8179    1.1507    4.3395 H       1  UNL1        0.0000
     19 C           5.7448    4.9949    5.3641 C.3     1  UNL1        0.0000
     20 H           5.1505    5.4502    6.1545 H       1  UNL1        0.0000
     21 H           5.3992    5.3909    4.4151 H       1  UNL1        0.0000
     22 H           6.7703    5.3250    5.5005 H       1  UNL1        0.0000
     23 C          -1.4951    2.1763    4.3836 C.3     1  UNL1        0.0000
     24 H          -1.4867    1.2274    4.9107 H       1  UNL1        0.0000
     25 H          -1.3089    1.9772    3.3346 H       1  UNL1        0.0000
     26 H          -2.4944    2.5892    4.4682 H       1  UNL1        0.0000
     27 C          -0.3529    5.1451    4.3536 C.3     1  UNL1        0.0000
     28 H           0.2584    5.8518    4.9096 H       1  UNL1        0.0000
     29 H          -1.3802    5.4921    4.4096 H       1  UNL1        0.0000
     30 H          -0.0481    5.1881    3.3138 H       1  UNL1        0.0000
     31 C          -0.2556    4.3189    7.6444 C.ar    1  UNL1        0.0000
     32 C          -1.1909    5.2504    8.0567 C.ar    1  UNL1        0.0000
     33 H          -2.1615    5.2506    7.5846 H       1  UNL1        0.0000
     34 C          -0.8822    6.1574    9.0584 C.ar    1  UNL1        0.0000
     35 H          -1.6211    6.8781    9.3728 H       1  UNL1        0.0000
     36 C           0.3692    6.1371    9.6492 C.ar    1  UNL1        0.0000
     37 H           0.6109    6.8422   10.4299 H       1  UNL1        0.0000
     38 C           1.3171    5.2153    9.2445 C.ar    1  UNL1        0.0000
     39 H           2.3004    5.1781    9.6938 H       1  UNL1        0.0000
     40 C           1.0248    4.2939    8.2373 C.ar    1  UNL1        0.0000
     41 C           5.7821    2.8832    8.1416 C.ar    1  UNL1        0.0000
     42 C           6.5194    3.7085    8.9734 C.ar    1  UNL1        0.0000
     43 H           7.4498    4.1127    8.6045 H       1  UNL1        0.0000
     44 C           6.0637    4.0054   10.2471 C.ar    1  UNL1        0.0000
     45 H           6.6482    4.6459   10.8897 H       1  UNL1        0.0000
     46 C           4.8573    3.4863   10.6858 C.ar    1  UNL1        0.0000
     47 H           4.4938    3.7225   11.6750 H       1  UNL1        0.0000
     48 C           4.1083    2.6619    9.8652 C.ar    1  UNL1        0.0000
     49 H           3.1648    2.2471   10.1977 H       1  UNL1        0.0000
     50 C           4.5587    2.3392    8.5823 C.ar    1  UNL1        0.0000
@<TRIPOS>BOND
     1    17    15    1
     2    30    27    1
     3    25    23    1
     4    15    18    1
     5    15    16    1
     6    15     1    1
     7    27    29    1
     8    27    28    1
     9    27     2    1
    10    23    26    1
    11    23    24    1
    12    23     2    1
    13    21    19    1
    14    12    11    1
    15    14    13    1
    16    11    13    2
    17    11    10    1
    18    13     7    1
    19    10     2    1
    20    10     8    1
    21     2     4    1
    22     7     8    1
    23     7     1    1
    24     8     9    1
    25    19     1    1
    26    19    22    1
    27    19    20    1
    28     1     3    1
    29     4    31    1
    30     3    41    1
    31    33    32    1
    32    31    32   ar
    33    31    40   ar
    34     5    50    1
    35     6    40    1
    36    32    34   ar
    37    41    50   ar
    38    41    42   ar
    39    40    38   ar
    40    50    48   ar
    41    43    42    1
    42    42    44   ar
    43    34    35    1
    44    34    36   ar
    45    38    36   ar
    46    38    39    1
    47    36    37    1
    48    48    49    1
    49    48    46   ar
    50    44    46   ar
    51    44    45    1
    52    46    47    1
