@<TRIPOS>MOLECULE
1,2,4,5,6
 42 42 0 0 0
SMALL
GASTEIGER

@<TRIPOS>ATOM
      1 N           3.6997    3.0122    5.7400 N.3     1  UNL1       -0.2358
      2 N           3.1198    4.4455    2.4026 N.3     1  UNL1       -0.2358
      3 O           3.2620    0.3777    4.5749 O.3     1  UNL1       -0.3762
      4 O           1.9930    1.8358    2.5285 O.3     1  UNL1       -0.3762
      5 O           5.6814    5.3623    3.2310 O.3     1  UNL1       -0.3762
      6 O           6.4515    3.7250    5.3036 O.3     1  UNL1       -0.3762
      7 C           2.5746    2.1965    6.1074 C.3     1  UNL1        0.0375
      8 C           2.7919    0.6705    5.8903 C.3     1  UNL1        0.0618
      9 C           2.3265   -0.2050    3.7012 C.3     1  UNL1        0.0711
     10 C           1.2923    0.7911    3.1665 C.3     1  UNL1        0.0711
     11 C           1.1766    2.9549    2.2269 C.3     1  UNL1        0.0618
     12 C           2.0387    4.0172    1.5516 C.3     1  UNL1        0.0375
     13 C           3.7858    5.5666    1.7861 C.3     1  UNL1        0.0375
     14 C           4.7050    6.2819    2.7737 C.3     1  UNL1        0.0618
     15 C           6.5595    5.9033    4.1933 C.3     1  UNL1        0.0711
     16 C           7.3175    4.7323    4.8326 C.3     1  UNL1        0.0711
     17 C           5.7755    4.0395    6.5150 C.3     1  UNL1        0.0618
     18 C           4.7256    2.9576    6.7607 C.3     1  UNL1        0.0375
     19 H           2.3241    2.3234    7.1803 H       1  UNL1        0.0463
     20 H           1.7042    2.5171    5.5214 H       1  UNL1        0.0463
     21 H           1.8720    0.1134    6.1049 H       1  UNL1        0.0573
     22 H           3.5774    0.3247    6.5707 H       1  UNL1        0.0573
     23 H           2.9171   -0.5808    2.8604 H       1  UNL1        0.0583
     24 H           1.8061   -1.0430    4.1882 H       1  UNL1        0.0583
     25 H           0.6824    1.1846    3.9935 H       1  UNL1        0.0583
     26 H           0.6223    0.2844    2.4533 H       1  UNL1        0.0583
     27 H           0.3577    2.6479    1.5580 H       1  UNL1        0.0573
     28 H           0.7470    3.3653    3.1534 H       1  UNL1        0.0573
     29 H           1.3755    4.8731    1.3038 H       1  UNL1        0.0463
     30 H           2.3933    3.6034    0.5812 H       1  UNL1        0.0463
     31 H           4.3896    5.2734    0.8987 H       1  UNL1        0.0463
     32 H           3.0436    6.3122    1.4334 H       1  UNL1        0.0463
     33 H           4.1117    6.6480    3.6250 H       1  UNL1        0.0573
     34 H           5.1980    7.1372    2.2858 H       1  UNL1        0.0573
     35 H           7.2740    6.5966    3.7222 H       1  UNL1        0.0583
     36 H           5.9927    6.4598    4.9548 H       1  UNL1        0.0583
     37 H           7.9625    5.1057    5.6413 H       1  UNL1        0.0583
     38 H           7.9273    4.2465    4.0661 H       1  UNL1        0.0583
     39 H           5.2672    5.0087    6.4433 H       1  UNL1        0.0573
     40 H           6.5037    4.0732    7.3407 H       1  UNL1        0.0573
     41 H           5.2583    1.9854    6.8091 H       1  UNL1        0.0463
     42 H           4.2812    3.1383    7.7603 H       1  UNL1        0.0463
@<TRIPOS>BOND
     1    30    12    1
     2    31    13    1
     3    29    12    1
     4    32    13    1
     5    12    11    1
     6    12     2    1
     7    27    11    1
     8    13     2    1
     9    13    14    1
    10    11     4    1
    11    11    28    1
    12    34    14    1
    13    26    10    1
    14     4    10    1
    15    14     5    1
    16    14    33    1
    17    23     9    1
    18    10     9    1
    19    10    25    1
    20     5    15    1
    21     9    24    1
    22     9     3    1
    23    35    15    1
    24    38    16    1
    25    15    16    1
    26    15    36    1
    27     3     8    1
    28    16     6    1
    29    16    37    1
    30     6    17    1
    31    20     7    1
    32     1     7    1
    33     1    18    1
    34     8    21    1
    35     8     7    1
    36     8    22    1
    37     7    19    1
    38    39    17    1
    39    17    18    1
    40    17    40    1
    41    18    41    1
    42    18    42    1
