@<TRIPOS>MOLECULE
1,2,3
 95 100 0 0 0
SMALL
GASTEIGER

@<TRIPOS>ATOM
      1 P          11.1821    3.7278    6.7052 P.3     1  UNL1        0.0000
      2 P          11.1190    2.0821    3.4512 P.3     1  UNL1        0.0000
      3 SI          8.9803    2.2609    5.4656 Si      1  UNL1        0.0000
      4 C           7.4165    1.1116    5.4415 C.3     1  UNL1        0.0000
      5 H           6.5656    1.6904    5.1022 H       1  UNL1        0.0000
      6 H           7.1841    0.7267    6.4275 H       1  UNL1        0.0000
      7 H           7.5136    0.2735    4.7641 H       1  UNL1        0.0000
      8 C           8.5152    3.4383    6.9049 C.ar    1  UNL1        0.0000
      9 C           9.6007    4.0263    7.5545 C.ar    1  UNL1        0.0000
     10 C           9.4090    4.7979    8.6949 C.ar    1  UNL1        0.0000
     11 H          10.2454    5.2538    9.2054 H       1  UNL1        0.0000
     12 C           8.1309    4.9816    9.1934 C.ar    1  UNL1        0.0000
     13 H           7.9818    5.5706   10.0877 H       1  UNL1        0.0000
     14 C           7.0457    4.4163    8.5446 C.ar    1  UNL1        0.0000
     15 H           6.0479    4.5680    8.9319 H       1  UNL1        0.0000
     16 C           7.2421    3.6499    7.4084 C.ar    1  UNL1        0.0000
     17 H           6.3925    3.2029    6.9150 H       1  UNL1        0.0000
     18 C           8.6975    3.2067    3.8246 C.ar    1  UNL1        0.0000
     19 C           9.7073    3.0831    2.8683 C.ar    1  UNL1        0.0000
     20 C           9.5491    3.6386    1.6062 C.ar    1  UNL1        0.0000
     21 H          10.3038    3.5136    0.8453 H       1  UNL1        0.0000
     22 C           8.4044    4.3600    1.3113 C.ar    1  UNL1        0.0000
     23 H           8.2868    4.8012    0.3314 H       1  UNL1        0.0000
     24 C           7.4130    4.5137    2.2653 C.ar    1  UNL1        0.0000
     25 H           6.5252    5.0850    2.0333 H       1  UNL1        0.0000
     26 C           7.5571    3.9232    3.5097 C.ar    1  UNL1        0.0000
     27 H           6.7782    4.0301    4.2508 H       1  UNL1        0.0000
     28 C          12.4900    3.8461    8.0464 C.3     1  UNL1        0.0000
     29 H          12.5635    4.8875    8.3802 H       1  UNL1        0.0000
     30 C          12.1591    2.9580    9.2374 C.3     1  UNL1        0.0000
     31 H          12.0200    1.9415    8.8669 H       1  UNL1        0.0000
     32 H          11.2224    3.2744    9.7006 H       1  UNL1        0.0000
     33 C          13.2767    2.9813   10.2764 C.3     1  UNL1        0.0000
     34 H          13.3731    3.9926   10.6812 H       1  UNL1        0.0000
     35 H          13.0216    2.3157   11.1047 H       1  UNL1        0.0000
     36 C          14.6054    2.5606    9.6572 C.3     1  UNL1        0.0000
     37 H          14.5377    1.5269    9.3102 H       1  UNL1        0.0000
     38 H          15.3986    2.6088   10.4065 H       1  UNL1        0.0000
     39 C          14.9430    3.4637    8.4765 C.3     1  UNL1        0.0000
     40 H          15.8820    3.1452    8.0189 H       1  UNL1        0.0000
     41 H          15.0740    4.4899    8.8307 H       1  UNL1        0.0000
     42 C          13.8267    3.4234    7.4381 C.3     1  UNL1        0.0000
     43 H          13.7299    2.4062    7.0459 H       1  UNL1        0.0000
     44 H          14.0863    4.0806    6.6043 H       1  UNL1        0.0000
     45 C          11.4416    5.4477    5.9641 C.3     1  UNL1        0.0000
     46 H          12.5007    5.4797    5.6731 H       1  UNL1        0.0000
     47 C          10.5806    5.5735    4.7153 C.3     1  UNL1        0.0000
     48 H          10.7771    4.7224    4.0609 H       1  UNL1        0.0000
     49 H           9.5259    5.5293    5.0007 H       1  UNL1        0.0000
     50 C          10.8519    6.8742    3.9677 C.3     1  UNL1        0.0000
     51 H          11.8900    6.8901    3.6240 H       1  UNL1        0.0000
     52 H          10.2063    6.9296    3.0883 H       1  UNL1        0.0000
     53 C          10.6098    8.0707    4.8800 C.3     1  UNL1        0.0000
     54 H          10.8445    8.9995    4.3554 H       1  UNL1        0.0000
     55 H           9.5554    8.1011    5.1636 H       1  UNL1        0.0000
     56 C          11.4669    7.9456    6.1343 C.3     1  UNL1        0.0000
     57 H          11.2810    8.7923    6.7992 H       1  UNL1        0.0000
     58 H          12.5240    7.9650    5.8563 H       1  UNL1        0.0000
     59 C          11.1552    6.6438    6.8724 C.3     1  UNL1        0.0000
     60 H          10.1008    6.6437    7.1544 H       1  UNL1        0.0000
     61 H          11.7528    6.6106    7.7847 H       1  UNL1        0.0000
     62 C          12.7455    2.6299    2.7010 C.3     1  UNL1        0.0000
     63 H          13.3627    1.7432    2.9179 H       1  UNL1        0.0000
     64 C          13.3467    3.7782    3.5039 C.3     1  UNL1        0.0000
     65 H          13.2111    3.5690    4.5712 H       1  UNL1        0.0000
     66 H          12.8309    4.7096    3.2639 H       1  UNL1        0.0000
     67 C          14.8280    3.9257    3.1730 C.3     1  UNL1        0.0000
     68 H          15.2601    4.7507    3.7449 H       1  UNL1        0.0000
     69 H          15.3551    3.0116    3.4560 H       1  UNL1        0.0000
     70 C          15.0081    4.1806    1.6787 C.3     1  UNL1        0.0000
     71 H          14.5494    5.1383    1.4189 H       1  UNL1        0.0000
     72 H          16.0710    4.2432    1.4355 H       1  UNL1        0.0000
     73 C          14.3531    3.0719    0.8591 C.3     1  UNL1        0.0000
     74 H          14.8593    2.1244    1.0601 H       1  UNL1        0.0000
     75 H          14.4597    3.2875   -0.2068 H       1  UNL1        0.0000
     76 C          12.8705    2.9416    1.2125 C.3     1  UNL1        0.0000
     77 H          12.4204    2.1580    0.5999 H       1  UNL1        0.0000
     78 H          12.3769    3.8896    0.9891 H       1  UNL1        0.0000
     79 C          10.7674    0.6068    2.3432 C.3     1  UNL1        0.0000
     80 H          10.6322    1.0381    1.3398 H       1  UNL1        0.0000
     81 C           9.4484   -0.0198    2.7832 C.3     1  UNL1        0.0000
     82 H           8.6666    0.7426    2.7978 H       1  UNL1        0.0000
     83 H           9.5710   -0.3986    3.8007 H       1  UNL1        0.0000
     84 C           9.0342   -1.1588    1.8567 C.3     1  UNL1        0.0000
     85 H           8.0998   -1.6001    2.2115 H       1  UNL1        0.0000
     86 H           8.8544   -0.7611    0.8545 H       1  UNL1        0.0000
     87 C          10.1260   -2.2207    1.7914 C.3     1  UNL1        0.0000
     88 H          10.2610   -2.6651    2.7805 H       1  UNL1        0.0000
     89 H           9.8347   -3.0176    1.1036 H       1  UNL1        0.0000
     90 C          11.4371   -1.5894    1.3375 C.3     1  UNL1        0.0000
     91 H          11.3147   -1.1893    0.3273 H       1  UNL1        0.0000
     92 H          12.2247   -2.3455    1.3038 H       1  UNL1        0.0000
     93 C          11.8528   -0.4650    2.2842 C.3     1  UNL1        0.0000
     94 H          12.7980   -0.0444    1.9373 H       1  UNL1        0.0000
     95 H          12.0166   -0.8791    3.2806 H       1  UNL1        0.0000
@<TRIPOS>BOND
     1    75    73    1
     2    91    90    1
     3    23    22    1
     4    77    76    1
     5    21    20    1
     6    86    84    1
     7    73    74    1
     8    73    76    1
     9    73    70    1
    10    78    76    1
    11    89    87    1
    12    76    62    1
    13    92    90    1
    14    22    20   ar
    15    22    24   ar
    16    90    87    1
    17    90    93    1
    18    80    79    1
    19    71    70    1
    20    72    70    1
    21    20    19   ar
    22    70    67    1
    23    87    84    1
    24    87    88    1
    25    84    85    1
    26    84    81    1
    27    94    93    1
    28    25    24    1
    29    24    26   ar
    30    93    79    1
    31    93    95    1
    32    79    81    1
    33    79     2    1
    34    62    63    1
    35    62     2    1
    36    62    64    1
    37    81    82    1
    38    81    83    1
    39    19     2    1
    40    19    18   ar
    41    52    50    1
    42    67    69    1
    43    67    64    1
    44    67    68    1
    45    66    64    1
    46    64    65    1
    47    26    18   ar
    48    26    27    1
    49    51    50    1
    50    18     3    1
    51    50    47    1
    52    50    53    1
    53    48    47    1
    54    54    53    1
    55    47    49    1
    56    47    45    1
    57     7     4    1
    58    53    55    1
    59    53    56    1
    60     5     4    1
    61     4     3    1
    62     4     6    1
    63     3     8    1
    64    46    45    1
    65    58    56    1
    66    45     1    1
    67    45    59    1
    68    56    57    1
    69    56    59    1
    70    44    42    1
    71     1     9    1
    72     1    28    1
    73    59    60    1
    74    59    61    1
    75     8    16   ar
    76     8     9   ar
    77    17    16    1
    78    43    42    1
    79    16    14   ar
    80    42    28    1
    81    42    39    1
    82     9    10   ar
    83    40    39    1
    84    28    29    1
    85    28    30    1
    86    39    41    1
    87    39    36    1
    88    14    15    1
    89    14    12   ar
    90    10    12   ar
    91    10    11    1
    92    31    30    1
    93    12    13    1
    94    30    32    1
    95    30    33    1
    96    37    36    1
    97    36    33    1
    98    36    38    1
    99    33    34    1
   100    33    35    1
