@<TRIPOS>MOLECULE
1,2,3
 95 100 0 0 0
SMALL
GASTEIGER

@<TRIPOS>ATOM
      1 P           3.1795    4.5242    0.7922 P.3     1  UNL1        0.0000
      2 P           1.6182    1.9419    3.8807 P.3     1  UNL1        0.0000
      3 SI          1.8737    4.8509    3.4114 Si      1  UNL1        0.0000
      4 C           0.2938    5.9677    3.5939 C.3     1  UNL1        0.0000
      5 H           0.4833    6.9710    3.2309 H       1  UNL1        0.0000
      6 H           0.0107    6.0357    4.6379 H       1  UNL1        0.0000
      7 H          -0.5599    5.5760    3.0510 H       1  UNL1        0.0000
      8 C           3.9182    5.8552    1.7871 C.ar    1  UNL1        0.0000
      9 C           3.2789    6.0840    3.0065 C.ar    1  UNL1        0.0000
     10 C           3.6832    7.1596    3.7792 C.ar    1  UNL1        0.0000
     11 H           3.1717    7.3705    4.7051 H       1  UNL1        0.0000
     12 C           4.7297    7.9719    3.3775 C.ar    1  UNL1        0.0000
     13 H           5.0396    8.8036    3.9941 H       1  UNL1        0.0000
     14 C           5.3855    7.7131    2.1859 C.ar    1  UNL1        0.0000
     15 H           6.2128    8.3351    1.8747 H       1  UNL1        0.0000
     16 C           4.9748    6.6633    1.3827 C.ar    1  UNL1        0.0000
     17 H           5.4950    6.4840    0.4527 H       1  UNL1        0.0000
     18 C           1.8207    2.9047    5.4056 C.ar    1  UNL1        0.0000
     19 C           2.0555    4.2646    5.2229 C.ar    1  UNL1        0.0000
     20 C           2.2144    5.0646    6.3428 C.ar    1  UNL1        0.0000
     21 H           2.3762    6.1241    6.2222 H       1  UNL1        0.0000
     22 C           2.1593    4.5263    7.6163 C.ar    1  UNL1        0.0000
     23 H           2.2984    5.1608    8.4801 H       1  UNL1        0.0000
     24 C           1.9024    3.1754    7.7874 C.ar    1  UNL1        0.0000
     25 H           1.8345    2.7569    8.7816 H       1  UNL1        0.0000
     26 C           1.7233    2.3635    6.6827 C.ar    1  UNL1        0.0000
     27 H           1.4948    1.3173    6.8238 H       1  UNL1        0.0000
     28 C           2.2081    5.4955   -0.4770 C.3     1  UNL1        0.0000
     29 H           1.6874    4.7313   -1.0753 H       1  UNL1        0.0000
     30 C           3.0345    6.3921   -1.3988 C.3     1  UNL1        0.0000
     31 H           3.5448    7.1494   -0.7990 H       1  UNL1        0.0000
     32 H           3.7856    5.8180   -1.9427 H       1  UNL1        0.0000
     33 C           2.1239    7.0876   -2.4102 C.3     1  UNL1        0.0000
     34 H           2.7261    7.7201   -3.0664 H       1  UNL1        0.0000
     35 H           1.6314    6.3351   -3.0312 H       1  UNL1        0.0000
     36 C           1.0679    7.9270   -1.7006 C.3     1  UNL1        0.0000
     37 H           1.5583    8.7157   -1.1248 H       1  UNL1        0.0000
     38 H           0.4143    8.4033   -2.4341 H       1  UNL1        0.0000
     39 C           0.2502    7.0489   -0.7606 C.3     1  UNL1        0.0000
     40 H          -0.2936    6.2992   -1.3401 H       1  UNL1        0.0000
     41 H          -0.4836    7.6536   -0.2241 H       1  UNL1        0.0000
     42 C           1.1614    6.3460    0.2412 C.3     1  UNL1        0.0000
     43 H           0.5589    5.7214    0.8995 H       1  UNL1        0.0000
     44 H           1.6690    7.0912    0.8608 H       1  UNL1        0.0000
     45 C           4.6143    3.8851   -0.2034 C.3     1  UNL1        0.0000
     46 H           5.1445    4.7614   -0.6004 H       1  UNL1        0.0000
     47 C           5.5719    3.1208    0.7078 C.3     1  UNL1        0.0000
     48 H           5.8649    3.7555    1.5497 H       1  UNL1        0.0000
     49 H           5.0613    2.2463    1.1165 H       1  UNL1        0.0000
     50 C           6.7998    2.6669   -0.0748 C.3     1  UNL1        0.0000
     51 H           7.3444    3.5409   -0.4425 H       1  UNL1        0.0000
     52 H           7.4698    2.1087    0.5822 H       1  UNL1        0.0000
     53 C           6.3789    1.7950   -1.2543 C.3     1  UNL1        0.0000
     54 H           5.8831    0.8972   -0.8790 H       1  UNL1        0.0000
     55 H           7.2584    1.4827   -1.8215 H       1  UNL1        0.0000
     56 C           5.4168    2.5548   -2.1623 C.3     1  UNL1        0.0000
     57 H           5.1087    1.9183   -2.9944 H       1  UNL1        0.0000
     58 H           5.9250    3.4285   -2.5803 H       1  UNL1        0.0000
     59 C           4.1852    3.0068   -1.3795 C.3     1  UNL1        0.0000
     60 H           3.6541    2.1271   -1.0141 H       1  UNL1        0.0000
     61 H           3.5094    3.5516   -2.0431 H       1  UNL1        0.0000
     62 C          -0.0966    1.2692    4.0978 C.3     1  UNL1        0.0000
     63 H          -0.1105    0.6727    5.0199 H       1  UNL1        0.0000
     64 C          -1.0812    2.4274    4.2463 C.3     1  UNL1        0.0000
     65 H          -0.8121    3.0372    5.1138 H       1  UNL1        0.0000
     66 H          -1.0259    3.0667    3.3627 H       1  UNL1        0.0000
     67 C          -2.5044    1.8969    4.3953 C.3     1  UNL1        0.0000
     68 H          -2.5777    1.3046    5.3113 H       1  UNL1        0.0000
     69 H          -3.2006    2.7335    4.4814 H       1  UNL1        0.0000
     70 C          -2.8767    1.0289    3.1968 C.3     1  UNL1        0.0000
     71 H          -2.8456    1.6361    2.2897 H       1  UNL1        0.0000
     72 H          -3.8930    0.6471    3.3136 H       1  UNL1        0.0000
     73 C          -1.8965   -0.1318    3.0566 C.3     1  UNL1        0.0000
     74 H          -2.1594   -0.7404    2.1891 H       1  UNL1        0.0000
     75 H          -1.9552   -0.7685    3.9436 H       1  UNL1        0.0000
     76 C          -0.4735    0.3971    2.9013 C.3     1  UNL1        0.0000
     77 H          -0.4129    0.9941    1.9882 H       1  UNL1        0.0000
     78 H           0.2287   -0.4342    2.7930 H       1  UNL1        0.0000
     79 C           2.7249    0.4471    4.1179 C.3     1  UNL1        0.0000
     80 H           2.8624    0.0724    3.0915 H       1  UNL1        0.0000
     81 C           2.2362   -0.7259    4.9696 C.3     1  UNL1        0.0000
     82 H           2.1451   -0.4296    6.0154 H       1  UNL1        0.0000
     83 H           1.2649   -1.0867    4.6278 H       1  UNL1        0.0000
     84 C           3.2491   -1.8681    4.8771 C.3     1  UNL1        0.0000
     85 H           2.9012   -2.7126    5.4767 H       1  UNL1        0.0000
     86 H           3.3222   -2.2025    3.8394 H       1  UNL1        0.0000
     87 C           4.6231   -1.4165    5.3616 C.3     1  UNL1        0.0000
     88 H           5.3364   -2.2387    5.2739 H       1  UNL1        0.0000
     89 H           4.5621   -1.1378    6.4165 H       1  UNL1        0.0000
     90 C           5.1037   -0.2173    4.5503 C.3     1  UNL1        0.0000
     91 H           5.2347   -0.5123    3.5063 H       1  UNL1        0.0000
     92 H           6.0703    0.1256    4.9255 H       1  UNL1        0.0000
     93 C           4.0875    0.9167    4.6319 C.3     1  UNL1        0.0000
     94 H           4.4291    1.7694    4.0404 H       1  UNL1        0.0000
     95 H           3.9932    1.2494    5.6688 H       1  UNL1        0.0000
@<TRIPOS>BOND
     1    34    33    1
     2    35    33    1
     3    57    56    1
     4    58    56    1
     5    38    36    1
     6    33    36    1
     7    33    30    1
     8    56    59    1
     9    56    53    1
    10    61    59    1
    11    32    30    1
    12    55    53    1
    13    36    37    1
    14    36    39    1
    15    30    31    1
    16    30    28    1
    17    59    60    1
    18    59    45    1
    19    40    39    1
    20    53    54    1
    21    53    50    1
    22    29    28    1
    23    39    41    1
    24    39    42    1
    25    46    45    1
    26    28    42    1
    27    28     1    1
    28    51    50    1
    29    45    47    1
    30    45     1    1
    31    50    52    1
    32    50    47    1
    33    42    44    1
    34    42    43    1
    35    17    16    1
    36    47    49    1
    37    47    48    1
    38     1     8    1
    39    16     8   ar
    40    16    14   ar
    41     8     9   ar
    42    15    14    1
    43    77    76    1
    44    14    12   ar
    45    74    73    1
    46    71    70    1
    47    78    76    1
    48    76    73    1
    49    76    62    1
    50     9     3    1
    51     9    10   ar
    52     7     4    1
    53    73    70    1
    54    73    75    1
    55    80    79    1
    56    70    72    1
    57    70    67    1
    58     5     4    1
    59    66    64    1
    60    12    10   ar
    61    12    13    1
    62     3     4    1
    63     3    19    1
    64    91    90    1
    65     4     6    1
    66    10    11    1
    67    86    84    1
    68     2    62    1
    69     2    79    1
    70     2    18    1
    71    94    93    1
    72    62    64    1
    73    62    63    1
    74    79    93    1
    75    79    81    1
    76    64    67    1
    77    64    65    1
    78    67    69    1
    79    67    68    1
    80    90    93    1
    81    90    92    1
    82    90    87    1
    83    83    81    1
    84    93    95    1
    85    84    81    1
    86    84    87    1
    87    84    85    1
    88    81    82    1
    89    19    18   ar
    90    19    20   ar
    91    88    87    1
    92    87    89    1
    93    18    26   ar
    94    21    20    1
    95    20    22   ar
    96    26    27    1
    97    26    24   ar
    98    22    24   ar
    99    22    23    1
   100    24    25    1
