@<TRIPOS>MOLECULE
2,3,4
 64 68 0 0 0
SMALL
GASTEIGER

@<TRIPOS>ATOM
      1 CL         15.0113    4.9535   14.4718 Cl      1  UNL1        0.0000
      2 P          11.6686    6.0641   12.5337 P.3     1  UNL1        0.0000
      3 P           9.9908    3.5910   12.6173 P.3     1  UNL1        0.0000
      4 SI         13.4345    3.8700   13.6237 Si      1  UNL1        0.0000
      5 C          14.1173    2.0860   13.6989 C.ar    1  UNL1        0.0000
      6 C          14.9952    1.6877   14.6987 C.ar    1  UNL1        0.0000
      7 C          15.4684    0.3893   14.7567 C.ar    1  UNL1        0.0000
      8 C          15.0686   -0.5386   13.8095 C.ar    1  UNL1        0.0000
      9 C          14.2041   -0.1531   12.7991 C.ar    1  UNL1        0.0000
     10 C          13.7355    1.1470   12.7489 C.ar    1  UNL1        0.0000
     11 C          12.9570    5.4800   11.3929 C.ar    1  UNL1        0.0000
     12 C          13.7204    4.3954   11.8115 C.ar    1  UNL1        0.0000
     13 C          14.6782    3.8765   10.9507 C.ar    1  UNL1        0.0000
     14 C          14.8694    4.4291    9.6966 C.ar    1  UNL1        0.0000
     15 C          14.1262    5.5309    9.2996 C.ar    1  UNL1        0.0000
     16 C          13.1733    6.0626   10.1481 C.ar    1  UNL1        0.0000
     17 C          12.1003    7.8239   12.5739 C.ar    1  UNL1        0.0000
     18 C          13.4479    8.1350   12.7334 C.ar    1  UNL1        0.0000
     19 C          13.8590    9.4535   12.7349 C.ar    1  UNL1        0.0000
     20 C          12.9274   10.4700   12.6015 C.ar    1  UNL1        0.0000
     21 C          11.5837   10.1650   12.4667 C.ar    1  UNL1        0.0000
     22 C          11.1668    8.8466   12.4461 C.ar    1  UNL1        0.0000
     23 C          10.2357    6.0009   11.3805 C.3     1  UNL1        0.0000
     24 C          10.0835    4.5312   11.0295 C.3     1  UNL1        0.0000
     25 C          10.3665    1.8844   12.1127 C.ar    1  UNL1        0.0000
     26 C          10.6818    1.4518   10.8298 C.ar    1  UNL1        0.0000
     27 C          10.9443    0.1109   10.5998 C.ar    1  UNL1        0.0000
     28 C          10.8976   -0.8045   11.6375 C.ar    1  UNL1        0.0000
     29 C          10.5811   -0.3806   12.9189 C.ar    1  UNL1        0.0000
     30 C          10.3170    0.9540   13.1479 C.ar    1  UNL1        0.0000
     31 C           8.1692    3.4796   12.7475 C.ar    1  UNL1        0.0000
     32 C           7.4334    2.4031   12.2609 C.ar    1  UNL1        0.0000
     33 C           6.0516    2.4324   12.3037 C.ar    1  UNL1        0.0000
     34 C           5.3900    3.5377   12.8115 C.ar    1  UNL1        0.0000
     35 C           6.1166    4.6109   13.2971 C.ar    1  UNL1        0.0000
     36 C           7.4984    4.5778   13.2757 C.ar    1  UNL1        0.0000
     37 H          15.3244    2.4088   15.4308 H       1  UNL1        0.0000
     38 H          16.1550    0.1011   15.5405 H       1  UNL1        0.0000
     39 H          15.4365   -1.5543   13.8528 H       1  UNL1        0.0000
     40 H          13.8961   -0.8648   12.0459 H       1  UNL1        0.0000
     41 H          13.0716    1.4439   11.9505 H       1  UNL1        0.0000
     42 H          15.2790    3.0364   11.2700 H       1  UNL1        0.0000
     43 H          15.6112    4.0128    9.0297 H       1  UNL1        0.0000
     44 H          14.2939    5.9765    8.3291 H       1  UNL1        0.0000
     45 H          12.6073    6.9364    9.8492 H       1  UNL1        0.0000
     46 H          14.1657    7.3325   12.8506 H       1  UNL1        0.0000
     47 H          14.9076    9.6901   12.8389 H       1  UNL1        0.0000
     48 H          13.2488   11.5015   12.6037 H       1  UNL1        0.0000
     49 H          10.8560   10.9583   12.3702 H       1  UNL1        0.0000
     50 H          10.1166    8.6146   12.3388 H       1  UNL1        0.0000
     51 H           9.3415    6.3730   11.8905 H       1  UNL1        0.0000
     52 H          10.4250    6.6159   10.4939 H       1  UNL1        0.0000
     53 H          10.9834    4.2019   10.4968 H       1  UNL1        0.0000
     54 H           9.1990    4.3341   10.4124 H       1  UNL1        0.0000
     55 H          10.7213    2.1464   10.0036 H       1  UNL1        0.0000
     56 H          11.1877   -0.2195    9.6000 H       1  UNL1        0.0000
     57 H          11.1049   -1.8473   11.4475 H       1  UNL1        0.0000
     58 H          10.5428   -1.0882   13.7346 H       1  UNL1        0.0000
     59 H          10.0542    1.3066   14.1392 H       1  UNL1        0.0000
     60 H           7.9380    1.5408   11.8484 H       1  UNL1        0.0000
     61 H           5.4880    1.5898   11.9289 H       1  UNL1        0.0000
     62 H           4.3101    3.5602   12.8304 H       1  UNL1        0.0000
     63 H           5.6067    5.4760   13.6953 H       1  UNL1        0.0000
     64 H           8.0632    5.4077   13.6799 H       1  UNL1        0.0000
@<TRIPOS>BOND
     1    44    15    1
     2    43    14    1
     3    15    14   ar
     4    15    16   ar
     5    56    27    1
     6    14    13   ar
     7    45    16    1
     8    55    26    1
     9    16    11   ar
    10    54    24    1
    11    52    23    1
    12    53    24    1
    13    27    26   ar
    14    27    28   ar
    15    26    25   ar
    16    13    42    1
    17    13    12   ar
    18    24    23    1
    19    24     3    1
    20    23    51    1
    21    23     2    1
    22    11    12   ar
    23    11     2    1
    24    57    28    1
    25    28    29   ar
    26    12     4    1
    27    60    32    1
    28    61    33    1
    29    41    10    1
    30    40     9    1
    31    25     3    1
    32    25    30   ar
    33    32    33   ar
    34    32    31   ar
    35    33    34   ar
    36    50    22    1
    37    49    21    1
    38    22    21   ar
    39    22    17   ar
    40    21    20   ar
    41     2    17    1
    42    17    18   ar
    43    20    48    1
    44    20    19   ar
    45     3    31    1
    46    18    19   ar
    47    18    46    1
    48    19    47    1
    49    31    36   ar
    50    10     9   ar
    51    10     5   ar
    52     9     8   ar
    53    34    62    1
    54    34    35   ar
    55    29    30   ar
    56    29    58    1
    57    30    59    1
    58    36    35   ar
    59    36    64    1
    60    35    63    1
    61     4     5    1
    62     4     1    1
    63     5     6   ar
    64     8    39    1
    65     8     7   ar
    66     6     7   ar
    67     6    37    1
    68     7    38    1
