@<TRIPOS>MOLECULE
1,2,3
 67 68 0 0 0
SMALL
GASTEIGER

@<TRIPOS>ATOM
      1 P          10.4010    9.0448    9.7629 P.3     1  UNL1        0.0000
      2 P          10.2786    5.8520   13.0636 P.3     1  UNL1        0.0000
      3 SI         10.7074    8.9482   12.8809 Si      1  UNL1        0.0000
      4 C          11.6052   10.2157   10.4761 C.ar    1  UNL1        0.0000
      5 C          11.7753   10.1862   11.8643 C.ar    1  UNL1        0.0000
      6 C          12.6487   11.0951   12.4436 C.ar    1  UNL1        0.0000
      7 H          12.7789   11.0992   13.5150 H       1  UNL1        0.0000
      8 C          13.3587   12.0009   11.6753 C.ar    1  UNL1        0.0000
      9 H          14.0455   12.6900   12.1455 H       1  UNL1        0.0000
     10 C          13.1791   12.0296   10.3029 C.ar    1  UNL1        0.0000
     11 H          13.7198   12.7433    9.6979 H       1  UNL1        0.0000
     12 C          12.2960   11.1475    9.7069 C.ar    1  UNL1        0.0000
     13 H          12.1379   11.1981    8.6392 H       1  UNL1        0.0000
     14 C           9.5214   10.0529   13.9312 C.3     1  UNL1        0.0000
     15 H           8.8775    9.4514   14.5616 H       1  UNL1        0.0000
     16 H           8.8969   10.6722   13.2984 H       1  UNL1        0.0000
     17 H          10.1063   10.7043   14.5697 H       1  UNL1        0.0000
     18 C          11.7145    7.9305   14.1685 C.ar    1  UNL1        0.0000
     19 C          11.4827    6.5526   14.2421 C.ar    1  UNL1        0.0000
     20 C          12.1219    5.7878   15.2134 C.ar    1  UNL1        0.0000
     21 H          11.9142    4.7309   15.2997 H       1  UNL1        0.0000
     22 C          13.0175    6.3752   16.0888 C.ar    1  UNL1        0.0000
     23 H          13.5186    5.7726   16.8329 H       1  UNL1        0.0000
     24 C          13.2622    7.7355   16.0128 C.ar    1  UNL1        0.0000
     25 H          13.9616    8.1985   16.6940 H       1  UNL1        0.0000
     26 C          12.6009    8.5021   15.0694 C.ar    1  UNL1        0.0000
     27 H          12.7816    9.5655   15.0353 H       1  UNL1        0.0000
     28 C           8.9494   10.1961    9.4898 C.3     1  UNL1        0.0000
     29 H           8.5626   10.3205   10.5123 H       1  UNL1        0.0000
     30 C           9.2863   11.5690    8.9186 C.3     1  UNL1        0.0000
     31 H           9.7438   11.4869    7.9344 H       1  UNL1        0.0000
     32 H           9.9572   12.1202    9.5727 H       1  UNL1        0.0000
     33 H           8.3687   12.1458    8.8101 H       1  UNL1        0.0000
     34 C           7.8709    9.5222    8.6463 C.3     1  UNL1        0.0000
     35 H           6.9414   10.0858    8.7118 H       1  UNL1        0.0000
     36 H           7.6805    8.5130    9.0048 H       1  UNL1        0.0000
     37 H           8.1646    9.4833    7.5991 H       1  UNL1        0.0000
     38 C          10.9846    8.6081    8.0390 C.3     1  UNL1        0.0000
     39 H          10.6441    9.3968    7.3541 H       1  UNL1        0.0000
     40 C          12.4948    8.4265    7.8985 C.3     1  UNL1        0.0000
     41 H          12.8334    7.5933    8.5089 H       1  UNL1        0.0000
     42 H          13.0531    9.3084    8.1992 H       1  UNL1        0.0000
     43 H          12.7359    8.2059    6.8585 H       1  UNL1        0.0000
     44 C          10.2905    7.2863    7.6956 C.3     1  UNL1        0.0000
     45 H          10.6339    6.9122    6.7317 H       1  UNL1        0.0000
     46 H           9.2081    7.3893    7.6602 H       1  UNL1        0.0000
     47 H          10.5402    6.5385    8.4579 H       1  UNL1        0.0000
     48 C           8.7858    5.6813   14.1810 C.3     1  UNL1        0.0000
     49 H           8.4428    6.7235   14.2633 H       1  UNL1        0.0000
     50 C           9.0616    5.1397   15.5793 C.3     1  UNL1        0.0000
     51 H           8.1254    5.0883   16.1339 H       1  UNL1        0.0000
     52 H           9.7457    5.7816   16.1286 H       1  UNL1        0.0000
     53 H           9.4781    4.1349   15.5395 H       1  UNL1        0.0000
     54 C           7.6873    4.8660   13.5045 C.3     1  UNL1        0.0000
     55 H           7.9330    3.8059   13.5066 H       1  UNL1        0.0000
     56 H           7.5400    5.1998   12.4797 H       1  UNL1        0.0000
     57 H           6.7476    4.9921   14.0402 H       1  UNL1        0.0000
     58 C          10.7941    4.0902   12.6972 C.3     1  UNL1        0.0000
     59 H          10.4001    3.4462   13.4954 H       1  UNL1        0.0000
     60 C          12.3003    3.8745   12.5636 C.3     1  UNL1        0.0000
     61 H          12.4979    2.8189   12.3763 H       1  UNL1        0.0000
     62 H          12.8471    4.1717   13.4538 H       1  UNL1        0.0000
     63 H          12.6911    4.4461   11.7258 H       1  UNL1        0.0000
     64 C          10.1216    3.7391   11.3663 C.3     1  UNL1        0.0000
     65 H          10.4269    4.4668   10.6045 H       1  UNL1        0.0000
     66 H           9.0362    3.7561   11.4387 H       1  UNL1        0.0000
     67 H          10.4303    2.7499   11.0299 H       1  UNL1        0.0000
@<TRIPOS>BOND
     1    45    44    1
     2    43    40    1
     3    39    38    1
     4    37    34    1
     5    46    44    1
     6    44    38    1
     7    44    47    1
     8    40    38    1
     9    40    42    1
    10    40    41    1
    11    31    30    1
    12    38     1    1
    13    13    12    1
    14    34    35    1
    15    34    36    1
    16    34    28    1
    17    33    30    1
    18    30    28    1
    19    30    32    1
    20    28     1    1
    21    28    29    1
    22    11    10    1
    23    12    10   ar
    24    12     4   ar
    25     1     4    1
    26    10     8   ar
    27     4     5   ar
    28    65    64    1
    29    67    64    1
    30    64    66    1
    31    64    58    1
    32     8     9    1
    33     8     6   ar
    34    63    60    1
    35     5     6   ar
    36     5     3    1
    37    61    60    1
    38     6     7    1
    39    56    54    1
    40    60    58    1
    41    60    62    1
    42    58     2    1
    43    58    59    1
    44     3    14    1
    45     3    18    1
    46     2    48    1
    47     2    19    1
    48    16    14    1
    49    54    55    1
    50    54    57    1
    51    54    48    1
    52    14    15    1
    53    14    17    1
    54    18    19   ar
    55    18    26   ar
    56    48    49    1
    57    48    50    1
    58    19    20   ar
    59    27    26    1
    60    26    24   ar
    61    20    21    1
    62    20    22   ar
    63    53    50    1
    64    50    52    1
    65    50    51    1
    66    24    22   ar
    67    24    25    1
    68    22    23    1
