@<TRIPOS>MOLECULE
1,2,3
 69 72 0 0 0
SMALL
GASTEIGER

@<TRIPOS>ATOM
      1 P           3.1918    1.3464    3.6437 P.3     1  UNL1        0.0000
      2 P           1.1891    5.2958    2.6330 P.3     1  UNL1        0.0000
      3 SI          1.2862    2.3130    1.1144 Si      1  UNL1        0.0000
      4 C           3.9944    0.4322    2.2682 C.3     1  UNL1        0.0000
      5 C           2.9590   -0.1054    1.2771 C.3     1  UNL1        0.0000
      6 C           2.4356    0.9618    0.3226 C.3     1  UNL1        0.0000
      7 C          -0.4526    1.4626    1.3060 C.3     1  UNL1        0.0000
      8 C           1.0991    3.5849   -0.3417 C.3     1  UNL1        0.0000
      9 C           0.3413    4.8664   -0.0138 C.3     1  UNL1        0.0000
     10 C           1.1318    5.8308    0.8728 C.3     1  UNL1        0.0000
     11 C           2.4912   -0.0312    4.6028 C.ar    1  UNL1        0.0000
     12 C           1.1561   -0.3655    4.4070 C.ar    1  UNL1        0.0000
     13 C           0.6048   -1.4367    5.0867 C.ar    1  UNL1        0.0000
     14 C           1.3829   -2.1751    5.9628 C.ar    1  UNL1        0.0000
     15 C           2.7145   -1.8441    6.1593 C.ar    1  UNL1        0.0000
     16 C           3.2719   -0.7760    5.4811 C.ar    1  UNL1        0.0000
     17 C           4.5467    1.9184    4.7132 C.ar    1  UNL1        0.0000
     18 C           5.8956    1.9165    4.3808 C.ar    1  UNL1        0.0000
     19 C           6.8148    2.5036    5.2345 C.ar    1  UNL1        0.0000
     20 C           6.3976    3.0980    6.4132 C.ar    1  UNL1        0.0000
     21 C           5.0519    3.1066    6.7486 C.ar    1  UNL1        0.0000
     22 C           4.1310    2.5250    5.9002 C.ar    1  UNL1        0.0000
     23 C           2.3285    6.4805    3.4178 C.ar    1  UNL1        0.0000
     24 C           2.6345    7.7531    2.9481 C.ar    1  UNL1        0.0000
     25 C           3.5637    8.5303    3.6181 C.ar    1  UNL1        0.0000
     26 C           4.1944    8.0476    4.7531 C.ar    1  UNL1        0.0000
     27 C           3.8952    6.7805    5.2279 C.ar    1  UNL1        0.0000
     28 C           2.9673    6.0036    4.5624 C.ar    1  UNL1        0.0000
     29 C          -0.4543    5.8221    3.2122 C.ar    1  UNL1        0.0000
     30 C          -1.5020    4.9183    3.0628 C.ar    1  UNL1        0.0000
     31 C          -2.7799    5.2667    3.4578 C.ar    1  UNL1        0.0000
     32 C          -3.0167    6.5148    4.0108 C.ar    1  UNL1        0.0000
     33 C          -1.9738    7.4123    4.1712 C.ar    1  UNL1        0.0000
     34 C          -0.6930    7.0708    3.7749 C.ar    1  UNL1        0.0000
     35 H           4.5750   -0.3915    2.7000 H       1  UNL1        0.0000
     36 H           4.6717    1.1218    1.7553 H       1  UNL1        0.0000
     37 H           3.4286   -0.9061    0.6962 H       1  UNL1        0.0000
     38 H           2.1254   -0.5506    1.8281 H       1  UNL1        0.0000
     39 H           3.2840    1.4425   -0.1636 H       1  UNL1        0.0000
     40 H           1.8659    0.4682   -0.4637 H       1  UNL1        0.0000
     41 H          -1.1555    1.8658    0.5840 H       1  UNL1        0.0000
     42 H          -0.3763    0.3937    1.1341 H       1  UNL1        0.0000
     43 H          -0.8757    1.6071    2.2958 H       1  UNL1        0.0000
     44 H           0.5764    3.0764   -1.1508 H       1  UNL1        0.0000
     45 H           2.0837    3.8498   -0.7258 H       1  UNL1        0.0000
     46 H           0.1049    5.3894   -0.9467 H       1  UNL1        0.0000
     47 H          -0.6085    4.6231    0.4692 H       1  UNL1        0.0000
     48 H           2.1673    5.9005    0.5233 H       1  UNL1        0.0000
     49 H           0.6739    6.8258    0.8355 H       1  UNL1        0.0000
     50 H           0.5565    0.2339    3.7358 H       1  UNL1        0.0000
     51 H          -0.4342   -1.6925    4.9385 H       1  UNL1        0.0000
     52 H           0.9514   -3.0080    6.4985 H       1  UNL1        0.0000
     53 H           3.3192   -2.4198    6.8453 H       1  UNL1        0.0000
     54 H           4.3102   -0.5120    5.6353 H       1  UNL1        0.0000
     55 H           6.2307    1.4619    3.4602 H       1  UNL1        0.0000
     56 H           7.8634    2.5010    4.9741 H       1  UNL1        0.0000
     57 H           7.1208    3.5582    7.0706 H       1  UNL1        0.0000
     58 H           4.7245    3.5714    7.6678 H       1  UNL1        0.0000
     59 H           3.0735    2.5226    6.1494 H       1  UNL1        0.0000
     60 H           2.1548    8.1362    2.0589 H       1  UNL1        0.0000
     61 H           3.8013    9.5175    3.2486 H       1  UNL1        0.0000
     62 H           4.9233    8.6582    5.2653 H       1  UNL1        0.0000
     63 H           4.3908    6.3977    6.1083 H       1  UNL1        0.0000
     64 H           2.7244    5.0055    4.9319 H       1  UNL1        0.0000
     65 H          -1.2970    3.9367    2.6562 H       1  UNL1        0.0000
     66 H          -3.5910    4.5623    3.3439 H       1  UNL1        0.0000
     67 H          -4.0137    6.7859    4.3260 H       1  UNL1        0.0000
     68 H          -2.1577    8.3819    4.6114 H       1  UNL1        0.0000
     69 H           0.1218    7.7693    3.9102 H       1  UNL1        0.0000
@<TRIPOS>BOND
     1    44     8    1
     2    46     9    1
     3    45     8    1
     4    40     6    1
     5     8     9    1
     6     8     3    1
     7    39     6    1
     8     9    47    1
     9     9    10    1
    10     6     3    1
    11     6     5    1
    12    48    10    1
    13    41     7    1
    14    37     5    1
    15    49    10    1
    16    10     2    1
    17     3     7    1
    18    42     7    1
    19     5    38    1
    20     5     4    1
    21     7    43    1
    22    36     4    1
    23    60    24    1
    24     4    35    1
    25     4     1    1
    26     2    29    1
    27     2    23    1
    28    65    30    1
    29    24    23   ar
    30    24    25   ar
    31    30    29   ar
    32    30    31   ar
    33    29    34   ar
    34    61    25    1
    35    66    31    1
    36    23    28   ar
    37    31    32   ar
    38    55    18    1
    39    25    26   ar
    40     1    11    1
    41     1    17    1
    42    50    12    1
    43    34    69    1
    44    34    33   ar
    45    32    33   ar
    46    32    67    1
    47    33    68    1
    48    18    17   ar
    49    18    19   ar
    50    12    11   ar
    51    12    13   ar
    52    28    64    1
    53    28    27   ar
    54    11    16   ar
    55    17    22   ar
    56    26    27   ar
    57    26    62    1
    58    51    13    1
    59    56    19    1
    60    13    14   ar
    61    27    63    1
    62    19    20   ar
    63    16    54    1
    64    16    15   ar
    65    22    59    1
    66    22    21   ar
    67    14    15   ar
    68    14    52    1
    69    15    53    1
    70    20    21   ar
    71    20    57    1
    72    21    58    1
