@<TRIPOS>MOLECULE
1,2,3
 69 72 0 0 0
SMALL
GASTEIGER

@<TRIPOS>ATOM
      1 P           8.3644    5.8965    6.1816 P.3     1  UNL1        0.0000
      2 P           6.5809    3.9810    2.3958 P.3     1  UNL1        0.0000
      3 SI          9.7356    4.5366    3.3794 Si      1  UNL1        0.0000
      4 C          10.0390    6.6583    6.1394 C.3     1  UNL1        0.0000
      5 C          11.1557    5.7832    5.5666 C.3     1  UNL1        0.0000
      6 C          11.1290    5.6989    4.0463 C.3     1  UNL1        0.0000
      7 C          10.4304    2.7722    3.7661 C.3     1  UNL1        0.0000
      8 C           9.9167    4.7185    1.4522 C.3     1  UNL1        0.0000
      9 C           8.5960    4.7605    0.6943 C.3     1  UNL1        0.0000
     10 C           7.7161    3.5488    1.0093 C.3     1  UNL1        0.0000
     11 C           8.3524    4.7784    7.6153 C.ar    1  UNL1        0.0000
     12 C           7.0891    4.2967    7.9604 C.ar    1  UNL1        0.0000
     13 C           6.9401    3.4341    9.0276 C.ar    1  UNL1        0.0000
     14 C           8.0513    3.0421    9.7587 C.ar    1  UNL1        0.0000
     15 C           9.3058    3.5196    9.4215 C.ar    1  UNL1        0.0000
     16 C           9.4622    4.3877    8.3533 C.ar    1  UNL1        0.0000
     17 C           7.4286    7.2919    6.8962 C.ar    1  UNL1        0.0000
     18 C           7.7246    7.7193    8.1896 C.ar    1  UNL1        0.0000
     19 C           7.0470    8.7906    8.7379 C.ar    1  UNL1        0.0000
     20 C           6.0667    9.4420    8.0051 C.ar    1  UNL1        0.0000
     21 C           5.7600    9.0129    6.7258 C.ar    1  UNL1        0.0000
     22 C           6.4375    7.9405    6.1718 C.ar    1  UNL1        0.0000
     23 C           5.2894    4.8815    1.4802 C.ar    1  UNL1        0.0000
     24 C           5.0052    6.2142    1.7420 C.ar    1  UNL1        0.0000
     25 C           4.0376    6.8787    1.0084 C.ar    1  UNL1        0.0000
     26 C           3.3456    6.2145    0.0112 C.ar    1  UNL1        0.0000
     27 C           3.6181    4.8802   -0.2500 C.ar    1  UNL1        0.0000
     28 C           4.5847    4.2153    0.4786 C.ar    1  UNL1        0.0000
     29 C           5.7449    2.4103    2.7719 C.ar    1  UNL1        0.0000
     30 C           4.3876    2.3986    3.0835 C.ar    1  UNL1        0.0000
     31 C           3.7743    1.2196    3.4653 C.ar    1  UNL1        0.0000
     32 C           4.5057    0.0462    3.5438 C.ar    1  UNL1        0.0000
     33 C           5.8591    0.0546    3.2483 C.ar    1  UNL1        0.0000
     34 C           6.4790    1.2312    2.8714 C.ar    1  UNL1        0.0000
     35 H           3.8211    3.3182    3.0429 H       1  UNL1        0.0000
     36 H           2.7224    1.2197    3.7107 H       1  UNL1        0.0000
     37 H           4.0249   -0.8729    3.8451 H       1  UNL1        0.0000
     38 H           6.4359   -0.8561    3.3215 H       1  UNL1        0.0000
     39 H           7.5413    1.2351    2.6670 H       1  UNL1        0.0000
     40 H           5.5247    6.7260    2.5406 H       1  UNL1        0.0000
     41 H           3.8205    7.9152    1.2208 H       1  UNL1        0.0000
     42 H           2.5876    6.7313   -0.5587 H       1  UNL1        0.0000
     43 H           3.0717    4.3569   -1.0212 H       1  UNL1        0.0000
     44 H           4.7855    3.1693    0.2844 H       1  UNL1        0.0000
     45 H           8.4771    7.2006    8.7693 H       1  UNL1        0.0000
     46 H           7.2788    9.1164    9.7416 H       1  UNL1        0.0000
     47 H           5.5361   10.2772    8.4381 H       1  UNL1        0.0000
     48 H           4.9860    9.5086    6.1587 H       1  UNL1        0.0000
     49 H           6.1724    7.5865    5.1849 H       1  UNL1        0.0000
     50 H           6.2282    4.6069    7.3778 H       1  UNL1        0.0000
     51 H           5.9599    3.0636    9.2886 H       1  UNL1        0.0000
     52 H           7.9387    2.3632   10.5911 H       1  UNL1        0.0000
     53 H          10.1714    3.2151    9.9923 H       1  UNL1        0.0000
     54 H          10.4468    4.7548    8.1046 H       1  UNL1        0.0000
     55 H          11.4300    2.6581    3.3584 H       1  UNL1        0.0000
     56 H          10.4867    2.5958    4.8363 H       1  UNL1        0.0000
     57 H           9.8102    1.9866    3.3453 H       1  UNL1        0.0000
     58 H          10.2767    6.9684    7.1634 H       1  UNL1        0.0000
     59 H           9.9380    7.5685    5.5349 H       1  UNL1        0.0000
     60 H          12.1105    6.2099    5.8918 H       1  UNL1        0.0000
     61 H          11.0901    4.7727    5.9755 H       1  UNL1        0.0000
     62 H          11.0374    6.7042    3.6349 H       1  UNL1        0.0000
     63 H          12.0875    5.3090    3.7056 H       1  UNL1        0.0000
     64 H          10.5060    3.8838    1.0731 H       1  UNL1        0.0000
     65 H          10.4756    5.6248    1.2214 H       1  UNL1        0.0000
     66 H           8.7921    4.7989   -0.3811 H       1  UNL1        0.0000
     67 H           8.0510    5.6777    0.9529 H       1  UNL1        0.0000
     68 H           7.1112    3.2588    0.1452 H       1  UNL1        0.0000
     69 H           8.3442    2.7022    1.2900 H       1  UNL1        0.0000
@<TRIPOS>BOND
     1    43    27    1
     2    42    26    1
     3    66     9    1
     4    27    26   ar
     5    27    28   ar
     6    26    25   ar
     7    68    10    1
     8    44    28    1
     9    28    23   ar
    10     9    67    1
    11     9    10    1
    12     9     8    1
    13    25    41    1
    14    25    24   ar
    15    10    69    1
    16    10     2    1
    17    64     8    1
    18    65     8    1
    19     8     3    1
    20    23    24   ar
    21    23     2    1
    22    24    40    1
    23     2    29    1
    24    39    34    1
    25    29    34   ar
    26    29    30   ar
    27    34    33   ar
    28    35    30    1
    29    30    31   ar
    30    33    38    1
    31    33    32   ar
    32    57     7    1
    33    55     7    1
    34     3     7    1
    35     3     6    1
    36    31    32   ar
    37    31    36    1
    38    32    37    1
    39    62     6    1
    40    63     6    1
    41     7    56    1
    42     6     5    1
    43    49    22    1
    44    59     4    1
    45     5    60    1
    46     5    61    1
    47     5     4    1
    48     4     1    1
    49     4    58    1
    50    48    21    1
    51    22    21   ar
    52    22    17   ar
    53     1    17    1
    54     1    11    1
    55    21    20   ar
    56    17    18   ar
    57    50    12    1
    58    11    12   ar
    59    11    16   ar
    60    12    13   ar
    61    20    47    1
    62    20    19   ar
    63    54    16    1
    64    18    19   ar
    65    18    45    1
    66    16    15   ar
    67    19    46    1
    68    13    51    1
    69    13    14   ar
    70    15    14   ar
    71    15    53    1
    72    14    52    1
