@<TRIPOS>MOLECULE
1,2,3
 67 68 0 0 0
SMALL
GASTEIGER

@<TRIPOS>ATOM
      1 P           2.6534    5.3587    6.1652 P.3     1  UNL1        0.0000
      2 P           1.5303    2.9640    2.7107 P.3     1  UNL1        0.0000
      3 SI          4.1883    3.0219    4.5586 Si      1  UNL1        0.0000
      4 C           6.0610    2.9884    4.9559 C.3     1  UNL1        0.0000
      5 H           6.2866    2.1627    5.6228 H       1  UNL1        0.0000
      6 H           6.3975    3.8977    5.4450 H       1  UNL1        0.0000
      7 H           6.6510    2.8736    4.0517 H       1  UNL1        0.0000
      8 C           3.4269    2.7308    6.2907 C.ar    1  UNL1        0.0000
      9 C           2.8846    3.7709    7.0511 C.ar    1  UNL1        0.0000
     10 C           2.5128    3.5224    8.3688 C.ar    1  UNL1        0.0000
     11 H           2.1040    4.3102    8.9827 H       1  UNL1        0.0000
     12 C           2.6601    2.2601    8.9150 C.ar    1  UNL1        0.0000
     13 H           2.3680    2.0834    9.9399 H       1  UNL1        0.0000
     14 C           3.1717    1.2242    8.1510 C.ar    1  UNL1        0.0000
     15 H           3.2724    0.2349    8.5725 H       1  UNL1        0.0000
     16 C           3.5611    1.4657    6.8472 C.ar    1  UNL1        0.0000
     17 H           3.9694    0.6631    6.2486 H       1  UNL1        0.0000
     18 C           3.8355    1.5933    3.3641 C.ar    1  UNL1        0.0000
     19 C           2.7059    1.5659    2.5445 C.ar    1  UNL1        0.0000
     20 C           2.4772    0.4567    1.7372 C.ar    1  UNL1        0.0000
     21 H           1.5903    0.3968    1.1283 H       1  UNL1        0.0000
     22 C           3.3739   -0.5956    1.7155 C.ar    1  UNL1        0.0000
     23 H           3.1863   -1.4471    1.0775 H       1  UNL1        0.0000
     24 C           4.5020   -0.5621    2.5173 C.ar    1  UNL1        0.0000
     25 H           5.2031   -1.3836    2.5063 H       1  UNL1        0.0000
     26 C           4.7194    0.5249    3.3426 C.ar    1  UNL1        0.0000
     27 H           5.5906    0.5435    3.9789 H       1  UNL1        0.0000
     28 C           4.5501    6.3963    8.0482 C.3     1  UNL1        0.0000
     29 H           5.5764    6.7336    8.1885 H       1  UNL1        0.0000
     30 H           4.4174    5.4726    8.6100 H       1  UNL1        0.0000
     31 H           3.8920    7.1584    8.4594 H       1  UNL1        0.0000
     32 C           4.2884    6.1828    6.5624 C.3     1  UNL1        0.0000
     33 H           5.0191    5.4491    6.1938 H       1  UNL1        0.0000
     34 C           4.4757    7.4722    5.7642 C.3     1  UNL1        0.0000
     35 H           3.9895    8.3116    6.2531 H       1  UNL1        0.0000
     36 H           4.0632    7.3767    4.7611 H       1  UNL1        0.0000
     37 H           5.5349    7.7054    5.6719 H       1  UNL1        0.0000
     38 C           1.1436    7.6573    6.7496 C.3     1  UNL1        0.0000
     39 H           0.9022    7.6707    5.6895 H       1  UNL1        0.0000
     40 H           2.0063    8.2949    6.9215 H       1  UNL1        0.0000
     41 H           0.2989    8.0794    7.2915 H       1  UNL1        0.0000
     42 C           1.3931    6.2292    7.2283 C.3     1  UNL1        0.0000
     43 H           1.8098    6.2622    8.2432 H       1  UNL1        0.0000
     44 C           0.0781    5.4497    7.2493 C.3     1  UNL1        0.0000
     45 H          -0.5716    5.8454    8.0285 H       1  UNL1        0.0000
     46 H           0.2352    4.3889    7.4436 H       1  UNL1        0.0000
     47 H          -0.4363    5.5572    6.2983 H       1  UNL1        0.0000
     48 C           2.1528    4.2858    0.3701 C.3     1  UNL1        0.0000
     49 H           3.0453    3.6657    0.2831 H       1  UNL1        0.0000
     50 H           2.3981    5.1648    0.9623 H       1  UNL1        0.0000
     51 H           1.8689    4.6219   -0.6251 H       1  UNL1        0.0000
     52 C           1.0038    3.5062    1.0071 C.3     1  UNL1        0.0000
     53 H           0.1902    4.2123    1.2230 H       1  UNL1        0.0000
     54 C           0.4818    2.4453    0.0423 C.3     1  UNL1        0.0000
     55 H          -0.0390    2.9450   -0.7740 H       1  UNL1        0.0000
     56 H          -0.2220    1.7630    0.5148 H       1  UNL1        0.0000
     57 H           1.3019    1.8778   -0.3921 H       1  UNL1        0.0000
     58 C          -1.2782    2.6462    3.2152 C.3     1  UNL1        0.0000
     59 H          -2.0502    1.9814    3.6016 H       1  UNL1        0.0000
     60 H          -1.5088    2.8660    2.1760 H       1  UNL1        0.0000
     61 H          -1.3214    3.5759    3.7757 H       1  UNL1        0.0000
     62 C           0.0815    1.9755    3.3641 C.3     1  UNL1        0.0000
     63 H           0.0786    1.0297    2.8059 H       1  UNL1        0.0000
     64 C           0.3758    1.6787    4.8332 C.3     1  UNL1        0.0000
     65 H           0.4605    2.6126    5.3942 H       1  UNL1        0.0000
     66 H           1.3070    1.1218    4.9438 H       1  UNL1        0.0000
     67 H          -0.4276    1.0932    5.2773 H       1  UNL1        0.0000
@<TRIPOS>BOND
     1    55    54    1
     2    51    48    1
     3    57    54    1
     4    54    56    1
     5    54    52    1
     6    49    48    1
     7    48    50    1
     8    48    52    1
     9    52    53    1
    10    52     2    1
    11    23    22    1
    12    21    20    1
    13    22    20   ar
    14    22    24   ar
    15    20    19   ar
    16    60    58    1
    17    25    24    1
    18    24    26   ar
    19    19     2    1
    20    19    18   ar
    21     2    62    1
    22    63    62    1
    23    58    62    1
    24    58    59    1
    25    58    61    1
    26    26    18   ar
    27    26    27    1
    28    62    64    1
    29    18     3    1
    30     7     4    1
    31     3     4    1
    32     3     8    1
    33    36    34    1
    34    64    66    1
    35    64    67    1
    36    64    65    1
    37     4     6    1
    38     4     5    1
    39    37    34    1
    40    39    38    1
    41    34    35    1
    42    34    32    1
    43     1    32    1
    44     1     9    1
    45     1    42    1
    46    33    32    1
    47    17    16    1
    48     8    16   ar
    49     8     9   ar
    50    47    44    1
    51    32    28    1
    52    38    40    1
    53    38    42    1
    54    38    41    1
    55    16    14   ar
    56     9    10   ar
    57    42    44    1
    58    42    43    1
    59    44    46    1
    60    44    45    1
    61    28    29    1
    62    28    31    1
    63    28    30    1
    64    14    15    1
    65    14    12   ar
    66    10    12   ar
    67    10    11    1
    68    12    13    1
