@<TRIPOS>MOLECULE
1,2,3
 74 76 0 0 0
SMALL
GASTEIGER

@<TRIPOS>ATOM
      1 P           2.7135    7.7263    6.5058 P.3     1  UNL1        0.0000
      2 P           3.3127    3.3483    6.1047 P.3     1  UNL1        0.0000
      3 SI          5.1547    5.7360    6.3761 Si      1  UNL1        0.0000
      4 C           6.7624    5.2774    5.4481 C.ar    1  UNL1        0.0000
      5 C           7.3120    6.1448    4.5085 C.ar    1  UNL1        0.0000
      6 H           6.7960    7.0614    4.2645 H       1  UNL1        0.0000
      7 C           8.5037    5.8459    3.8758 C.ar    1  UNL1        0.0000
      8 H           8.9119    6.5321    3.1486 H       1  UNL1        0.0000
      9 C           9.1700    4.6680    4.1707 C.ar    1  UNL1        0.0000
     10 H          10.0992    4.4297    3.6740 H       1  UNL1        0.0000
     11 C           8.6390    3.7976    5.1064 C.ar    1  UNL1        0.0000
     12 H           9.1523    2.8772    5.3457 H       1  UNL1        0.0000
     13 C           7.4482    4.1045    5.7401 C.ar    1  UNL1        0.0000
     14 H           7.0500    3.4208    6.4756 H       1  UNL1        0.0000
     15 C           5.4199    7.5509    6.8615 C.ar    1  UNL1        0.0000
     16 C           4.3647    8.4564    6.7785 C.ar    1  UNL1        0.0000
     17 C           4.6054    9.8116    6.9789 C.ar    1  UNL1        0.0000
     18 H           3.8095   10.5347    6.8821 H       1  UNL1        0.0000
     19 C           5.8797   10.2511    7.2903 C.ar    1  UNL1        0.0000
     20 H           6.0600   11.3055    7.4425 H       1  UNL1        0.0000
     21 C           6.9215    9.3452    7.4083 C.ar    1  UNL1        0.0000
     22 H           7.9137    9.6900    7.6596 H       1  UNL1        0.0000
     23 C           6.6905    8.0010    7.1805 C.ar    1  UNL1        0.0000
     24 H           7.5049    7.2936    7.2372 H       1  UNL1        0.0000
     25 C           5.1455    4.4525    7.7863 C.ar    1  UNL1        0.0000
     26 C           4.4477    3.2690    7.5349 C.ar    1  UNL1        0.0000
     27 C           4.6216    2.1830    8.3836 C.ar    1  UNL1        0.0000
     28 H           4.1307    1.2435    8.1839 H       1  UNL1        0.0000
     29 C           5.4473    2.2921    9.4897 C.ar    1  UNL1        0.0000
     30 H           5.5765    1.4435   10.1459 H       1  UNL1        0.0000
     31 C           6.1053    3.4812    9.7588 C.ar    1  UNL1        0.0000
     32 H           6.7373    3.5647   10.6308 H       1  UNL1        0.0000
     33 C           5.9691    4.5531    8.8941 C.ar    1  UNL1        0.0000
     34 H           6.5050    5.4732    9.0774 H       1  UNL1        0.0000
     35 C           2.5053    9.3428    4.2465 C.3     1  UNL1        0.0000
     36 H           2.0735   10.2287    3.7835 H       1  UNL1        0.0000
     37 H           2.3797    8.5081    3.5614 H       1  UNL1        0.0000
     38 H           3.5728    9.5113    4.3850 H       1  UNL1        0.0000
     39 C           1.8076    9.0593    5.5739 C.3     1  UNL1        0.0000
     40 H           1.8613    9.9549    6.2062 H       1  UNL1        0.0000
     41 C           0.3431    8.7029    5.3479 C.3     1  UNL1        0.0000
     42 H          -0.1674    9.5366    4.8681 H       1  UNL1        0.0000
     43 H          -0.1668    8.4802    6.2832 H       1  UNL1        0.0000
     44 H           0.2565    7.8355    4.6977 H       1  UNL1        0.0000
     45 C           2.0424    9.1957    8.8953 C.3     1  UNL1        0.0000
     46 H           1.5973    9.1229    9.8869 H       1  UNL1        0.0000
     47 H           1.4707    9.9292    8.3316 H       1  UNL1        0.0000
     48 H           3.0645    9.5521    9.0116 H       1  UNL1        0.0000
     49 C           2.0102    7.8220    8.2382 C.3     1  UNL1        0.0000
     50 H           0.9662    7.4994    8.1412 H       1  UNL1        0.0000
     51 C           2.7551    6.8052    9.1010 C.3     1  UNL1        0.0000
     52 H           2.3066    6.7455   10.0912 H       1  UNL1        0.0000
     53 H           3.8026    7.0860    9.2138 H       1  UNL1        0.0000
     54 H           2.7134    5.8081    8.6565 H       1  UNL1        0.0000
     55 C           3.4352    2.4589    3.4789 C.3     1  UNL1        0.0000
     56 H           4.0536    2.2626    2.6052 H       1  UNL1        0.0000
     57 H           2.8859    3.3824    3.2992 H       1  UNL1        0.0000
     58 H           2.7163    1.6493    3.5776 H       1  UNL1        0.0000
     59 C           4.3133    2.5908    4.7214 C.3     1  UNL1        0.0000
     60 H           5.0616    3.3707    4.5180 H       1  UNL1        0.0000
     61 C           5.0768    1.3109    5.0413 C.3     1  UNL1        0.0000
     62 H           5.8085    1.1325    4.2542 H       1  UNL1        0.0000
     63 H           4.4228    0.4463    5.0907 H       1  UNL1        0.0000
     64 H           5.6137    1.3973    5.9843 H       1  UNL1        0.0000
     65 C           1.4342    2.4587    7.9674 C.3     1  UNL1        0.0000
     66 H           0.3964    2.1536    8.0833 H       1  UNL1        0.0000
     67 H           1.4959    3.5132    8.2277 H       1  UNL1        0.0000
     68 H           2.0380    1.9011    8.6790 H       1  UNL1        0.0000
     69 C           1.8881    2.2046    6.5266 C.3     1  UNL1        0.0000
     70 H           1.0954    2.5713    5.8575 H       1  UNL1        0.0000
     71 C           2.0316    0.7046    6.2834 C.3     1  UNL1        0.0000
     72 H           1.1083    0.2204    6.6016 H       1  UNL1        0.0000
     73 H           2.8468    0.2672    6.8538 H       1  UNL1        0.0000
     74 H           2.1763    0.4741    5.2320 H       1  UNL1        0.0000
@<TRIPOS>BOND
     1    56    55    1
     2     8     7    1
     3    57    55    1
     4    55    58    1
     5    55    59    1
     6    37    35    1
     7    10     9    1
     8    36    35    1
     9     7     9   ar
    10     7     5   ar
    11     9    11   ar
    12    35    38    1
    13    35    39    1
    14    62    61    1
    15     6     5    1
    16     5     4   ar
    17    60    59    1
    18    44    41    1
    19    59    61    1
    20    59     2    1
    21    42    41    1
    22    61    63    1
    23    61    64    1
    24    11    12    1
    25    11    13   ar
    26    74    71    1
    27    41    39    1
    28    41    43    1
    29     4    13   ar
    30     4     3    1
    31    39    40    1
    32    39     1    1
    33    13    14    1
    34    70    69    1
    35     2    69    1
    36     2    26    1
    37    71    69    1
    38    71    72    1
    39    71    73    1
    40     3    15    1
    41     3    25    1
    42     1    16    1
    43     1    49    1
    44    69    65    1
    45    16    15   ar
    46    16    17   ar
    47    15    23   ar
    48    18    17    1
    49    17    19   ar
    50    23    24    1
    51    23    21   ar
    52    19    21   ar
    53    19    20    1
    54    21    22    1
    55    26    25   ar
    56    26    27   ar
    57    25    33   ar
    58    65    66    1
    59    65    67    1
    60    65    68    1
    61    50    49    1
    62    28    27    1
    63    49    45    1
    64    49    51    1
    65    47    45    1
    66    27    29   ar
    67    54    51    1
    68    33    34    1
    69    33    31   ar
    70    45    48    1
    71    45    46    1
    72    51    53    1
    73    51    52    1
    74    29    31   ar
    75    29    30    1
    76    31    32    1
