@<TRIPOS>MOLECULE
1,2,3
 68 73 0 0 0
SMALL
GASTEIGER

@<TRIPOS>ATOM
      1 P           4.5160    4.6226   10.1805 P.3     1  UNL1        0.0000
      2 P           0.5029    3.3597    8.6416 P.3     1  UNL1        0.0000
      3 SI          1.5877    4.4420   11.1194 Si      1  UNL1        0.0000
      4 H           1.0862    3.6290   12.2834 H       1  UNL1        0.0000
      5 C           2.7175    5.7061   11.9827 C.ar    1  UNL1        0.0000
      6 C           2.3649    6.5034   13.0590 C.ar    1  UNL1        0.0000
      7 H           1.3665    6.4309   13.4632 H       1  UNL1        0.0000
      8 C           3.2770    7.3744   13.6278 C.ar    1  UNL1        0.0000
      9 H           2.9864    7.9939   14.4645 H       1  UNL1        0.0000
     10 C           4.5694    7.4510   13.1301 C.ar    1  UNL1        0.0000
     11 H           5.2824    8.1313   13.5737 H       1  UNL1        0.0000
     12 C           4.9486    6.6443   12.0745 C.ar    1  UNL1        0.0000
     13 H           5.9602    6.6865   11.6918 H       1  UNL1        0.0000
     14 C           4.0199    5.7808   11.5022 C.ar    1  UNL1        0.0000
     15 C          -0.0289    5.2619   10.5206 C.ar    1  UNL1        0.0000
     16 C          -0.7636    6.2708   11.1193 C.ar    1  UNL1        0.0000
     17 H          -0.3972    6.7314   12.0242 H       1  UNL1        0.0000
     18 C          -1.9572    6.7019   10.5621 C.ar    1  UNL1        0.0000
     19 H          -2.5164    7.4980   11.0334 H       1  UNL1        0.0000
     20 C          -2.4387    6.1147    9.4035 C.ar    1  UNL1        0.0000
     21 H          -3.3722    6.4488    8.9733 H       1  UNL1        0.0000
     22 C          -1.7216    5.1008    8.7912 C.ar    1  UNL1        0.0000
     23 H          -2.0942    4.6414    7.8851 H       1  UNL1        0.0000
     24 C          -0.5181    4.6878    9.3471 C.ar    1  UNL1        0.0000
     25 C           5.7797    3.7519   11.1777 C.ar    1  UNL1        0.0000
     26 C           5.2939    2.7330   11.9926 C.ar    1  UNL1        0.0000
     27 H           4.2371    2.4902   11.9531 H       1  UNL1        0.0000
     28 C           6.1403    2.0458   12.8405 C.ar    1  UNL1        0.0000
     29 H           5.7537    1.2534   13.4648 H       1  UNL1        0.0000
     30 C           7.4855    2.3763   12.8866 C.ar    1  UNL1        0.0000
     31 H           8.1538    1.8365   13.5417 H       1  UNL1        0.0000
     32 C           7.9695    3.4068   12.0989 C.ar    1  UNL1        0.0000
     33 H           9.0151    3.6762   12.1451 H       1  UNL1        0.0000
     34 C           7.1224    4.1009   11.2524 C.ar    1  UNL1        0.0000
     35 H           7.5136    4.9108   10.6538 H       1  UNL1        0.0000
     36 C           5.4813    5.7043    9.0776 C.ar    1  UNL1        0.0000
     37 C           6.5594    5.2297    8.3359 C.ar    1  UNL1        0.0000
     38 H           6.9291    4.2283    8.5022 H       1  UNL1        0.0000
     39 C           7.1622    6.0381    7.3889 C.ar    1  UNL1        0.0000
     40 H           7.9977    5.6586    6.8179 H       1  UNL1        0.0000
     41 C           6.6962    7.3234    7.1700 C.ar    1  UNL1        0.0000
     42 H           7.1683    7.9510    6.4281 H       1  UNL1        0.0000
     43 C           5.6200    7.8009    7.9014 C.ar    1  UNL1        0.0000
     44 H           5.2512    8.8023    7.7306 H       1  UNL1        0.0000
     45 C           5.0095    6.9947    8.8436 C.ar    1  UNL1        0.0000
     46 H           4.1538    7.3540    9.4010 H       1  UNL1        0.0000
     47 C          -0.3046    1.8740    9.3069 C.ar    1  UNL1        0.0000
     48 C           0.0529    0.6452    8.7551 C.ar    1  UNL1        0.0000
     49 H           0.7360    0.6222    7.9157 H       1  UNL1        0.0000
     50 C          -0.4564   -0.5275    9.2761 C.ar    1  UNL1        0.0000
     51 H          -0.1744   -1.4755    8.8410 H       1  UNL1        0.0000
     52 C          -1.3182   -0.4839   10.3612 C.ar    1  UNL1        0.0000
     53 H          -1.7127   -1.4009   10.7742 H       1  UNL1        0.0000
     54 C          -1.6665    0.7339   10.9210 C.ar    1  UNL1        0.0000
     55 H          -2.3325    0.7669   11.7712 H       1  UNL1        0.0000
     56 C          -1.1614    1.9127   10.4004 C.ar    1  UNL1        0.0000
     57 H          -1.4280    2.8634   10.8415 H       1  UNL1        0.0000
     58 C          -0.0619    3.3930    6.9076 C.ar    1  UNL1        0.0000
     59 C          -1.0087    2.5339    6.3611 C.ar    1  UNL1        0.0000
     60 H          -1.4649    1.7676    6.9722 H       1  UNL1        0.0000
     61 C          -1.3642    2.6622    5.0291 C.ar    1  UNL1        0.0000
     62 H          -2.0979    1.9910    4.6055 H       1  UNL1        0.0000
     63 C          -0.7872    3.6431    4.2394 C.ar    1  UNL1        0.0000
     64 H          -1.0647    3.7309    3.1989 H       1  UNL1        0.0000
     65 C           0.1433    4.5143    4.7854 C.ar    1  UNL1        0.0000
     66 H           0.5939    5.2832    4.1741 H       1  UNL1        0.0000
     67 C           0.5012    4.3901    6.1139 C.ar    1  UNL1        0.0000
     68 H           1.2310    5.0576    6.5543 H       1  UNL1        0.0000
@<TRIPOS>BOND
     1    64    63    1
     2    66    65    1
     3    63    65   ar
     4    63    61   ar
     5    62    61    1
     6    65    67   ar
     7    61    59   ar
     8    67    68    1
     9    67    58   ar
    10    59    58   ar
    11    59    60    1
    12    42    41    1
    13    40    39    1
    14    58     2    1
    15    41    39   ar
    16    41    43   ar
    17    39    37   ar
    18    44    43    1
    19    23    22    1
    20    43    45   ar
    21    49    48    1
    22    37    38    1
    23    37    36   ar
    24     2    47    1
    25     2    24    1
    26    48    50   ar
    27    48    47   ar
    28    22    24   ar
    29    22    20   ar
    30    51    50    1
    31    45    36   ar
    32    45    46    1
    33    21    20    1
    34    36     1    1
    35    50    52   ar
    36    47    56   ar
    37    24    15   ar
    38    20    18   ar
    39     1    25    1
    40     1    14    1
    41    52    53    1
    42    52    54   ar
    43    56    57    1
    44    56    54   ar
    45    15    16   ar
    46    15     3    1
    47    18    19    1
    48    18    16   ar
    49    35    34    1
    50    54    55    1
    51    16    17    1
    52     3     5    1
    53     3     4    1
    54    25    34   ar
    55    25    26   ar
    56    34    32   ar
    57    14     5   ar
    58    14    12   ar
    59    13    12    1
    60    27    26    1
    61     5     6   ar
    62    26    28   ar
    63    12    10   ar
    64    32    33    1
    65    32    30   ar
    66    28    30   ar
    67    28    29    1
    68    30    31    1
    69     6     7    1
    70     6     8   ar
    71    10    11    1
    72    10     8   ar
    73     8     9    1
