@<TRIPOS>MOLECULE
1,2,3
 75 80 0 0 0
SMALL
GASTEIGER

@<TRIPOS>ATOM
      1 P          -0.4948    7.3933    9.4803 P.3     1  UNL1        0.0000
      2 P          -1.8871    5.1891   13.1399 P.3     1  UNL1        0.0000
      3 SI         -2.7366    7.4936   11.5659 Si      1  UNL1        0.0000
      4 S          -3.5204    9.9944   12.3238 S.3     1  UNL1        0.0000
      5 O          -2.7874    8.7569   12.7685 O.3     1  UNL1        0.0000
      6 F          -3.6399   10.3737   14.9432 F       1  UNL1        0.0000
      7 F          -3.7187   12.2095   13.8190 F       1  UNL1        0.0000
      8 F          -1.8545   11.1486   14.0160 F       1  UNL1        0.0000
      9 O          -4.9266    9.8025   12.2687 O.3     1  UNL1        0.0000
     10 O          -2.8691   10.6590   11.2519 O.3     1  UNL1        0.0000
     11 C           0.4240    8.9646    9.3059 C.ar    1  UNL1        0.0000
     12 C          -3.1412    8.1690    9.8246 C.ar    1  UNL1        0.0000
     13 C          -2.0943    8.0698    8.9079 C.ar    1  UNL1        0.0000
     14 C          -4.1596    6.3516   12.1629 C.ar    1  UNL1        0.0000
     15 C          -3.6825    5.2316   12.8520 C.ar    1  UNL1        0.0000
     16 C          -4.3193    8.7815    9.4176 C.ar    1  UNL1        0.0000
     17 H          -5.1311    8.8987   10.1164 H       1  UNL1        0.0000
     18 C           1.0843    9.3752    8.1539 C.ar    1  UNL1        0.0000
     19 H           1.1388    8.7266    7.2918 H       1  UNL1        0.0000
     20 C          -4.5541    4.2815   13.3675 C.ar    1  UNL1        0.0000
     21 H          -4.1715    3.4220   13.9011 H       1  UNL1        0.0000
     22 C          -2.2207    8.5743    7.6181 C.ar    1  UNL1        0.0000
     23 H          -1.3938    8.4989    6.9244 H       1  UNL1        0.0000
     24 C           0.3306    9.8351   10.3883 C.ar    1  UNL1        0.0000
     25 H          -0.2194    9.5308   11.2714 H       1  UNL1        0.0000
     26 C          -1.7732    5.9857   14.7712 C.ar    1  UNL1        0.0000
     27 C          -3.4036    9.1730    7.2301 C.ar    1  UNL1        0.0000
     28 H          -3.5069    9.5671    6.2294 H       1  UNL1        0.0000
     29 C          -4.4498    9.2802    8.1333 C.ar    1  UNL1        0.0000
     30 H          -5.3704    9.7603    7.8352 H       1  UNL1        0.0000
     31 C          -0.9761    5.6120    7.4243 C.ar    1  UNL1        0.0000
     32 H          -2.0061    5.7157    7.7407 H       1  UNL1        0.0000
     33 C           0.0056    6.3774    8.0519 C.ar    1  UNL1        0.0000
     34 C          -1.5454    2.5873   12.3851 C.ar    1  UNL1        0.0000
     35 H          -1.6193    3.0301   11.4005 H       1  UNL1        0.0000
     36 C          -6.4050    5.5581   12.5296 C.ar    1  UNL1        0.0000
     37 H          -7.4705    5.6884   12.4081 H       1  UNL1        0.0000
     38 C          -5.5323    6.5082   12.0212 C.ar    1  UNL1        0.0000
     39 H          -5.9221    7.3848   11.5279 H       1  UNL1        0.0000
     40 C          -0.5548    5.8846   15.4410 C.ar    1  UNL1        0.0000
     41 H           0.2297    5.2698   15.0181 H       1  UNL1        0.0000
     42 C          -1.5508    2.8738   14.7743 C.ar    1  UNL1        0.0000
     43 H          -1.6341    3.5106   15.6436 H       1  UNL1        0.0000
     44 C          -1.6331    3.4200   13.4984 C.ar    1  UNL1        0.0000
     45 C          -0.6360    4.7245    6.4209 C.ar    1  UNL1        0.0000
     46 H          -1.4049    4.1407    5.9358 H       1  UNL1        0.0000
     47 C          -2.7768    6.7950   15.2906 C.ar    1  UNL1        0.0000
     48 H          -3.7189    6.8965   14.7713 H       1  UNL1        0.0000
     49 C           1.6758   10.6257    8.1077 C.ar    1  UNL1        0.0000
     50 H           2.1954   10.9372    7.2127 H       1  UNL1        0.0000
     51 C          -5.9182    4.4426   13.1911 C.ar    1  UNL1        0.0000
     52 H          -6.6017    3.7019   13.5808 H       1  UNL1        0.0000
     53 C          -1.3586    1.5110   14.9262 C.ar    1  UNL1        0.0000
     54 H          -1.2910    1.0880   15.9183 H       1  UNL1        0.0000
     55 C           0.9135   11.0863   10.3346 C.ar    1  UNL1        0.0000
     56 H           0.8296   11.7544   11.1787 H       1  UNL1        0.0000
     57 C           1.3346    6.2219    7.6695 C.ar    1  UNL1        0.0000
     58 H           2.1068    6.8039    8.1496 H       1  UNL1        0.0000
     59 C          -0.3497    6.5675   16.6234 C.ar    1  UNL1        0.0000
     60 H           0.5985    6.4828   17.1348 H       1  UNL1        0.0000
     61 C          -1.3536    1.2280   12.5418 C.ar    1  UNL1        0.0000
     62 H          -1.2745    0.5902   11.6732 H       1  UNL1        0.0000
     63 C           0.6895    4.5773    6.0431 C.ar    1  UNL1        0.0000
     64 H           0.9564    3.8789    5.2636 H       1  UNL1        0.0000
     65 C          -3.1674   10.9973   13.8659 C.3     1  UNL1        0.0000
     66 C          -2.5629    7.4844   16.4718 C.ar    1  UNL1        0.0000
     67 H          -3.3416    8.1213   16.8644 H       1  UNL1        0.0000
     68 C          -1.3544    7.3720   17.1388 C.ar    1  UNL1        0.0000
     69 H          -1.1915    7.9179   18.0565 H       1  UNL1        0.0000
     70 C           1.5972   11.4796    9.1951 C.ar    1  UNL1        0.0000
     71 H           2.0601   12.4546    9.1504 H       1  UNL1        0.0000
     72 C          -1.2529    0.6893   13.8159 C.ar    1  UNL1        0.0000
     73 H          -1.0947   -0.3717   13.9431 H       1  UNL1        0.0000
     74 C           1.6708    5.3264    6.6693 C.ar    1  UNL1        0.0000
     75 H           2.7061    5.2139    6.3810 H       1  UNL1        0.0000
@<TRIPOS>BOND
     1    64    63    1
     2    46    45    1
     3    63    45   ar
     4    63    74   ar
     5    28    27    1
     6    75    74    1
     7    45    31   ar
     8    74    57   ar
     9    23    22    1
    10    50    49    1
    11    27    22   ar
    12    27    29   ar
    13    19    18    1
    14    31    32    1
    15    31    33   ar
    16    22    13   ar
    17    57    33   ar
    18    57    58    1
    19    30    29    1
    20    33     1    1
    21    49    18   ar
    22    49    70   ar
    23    29    16   ar
    24    18    11   ar
    25    13     1    1
    26    13    12   ar
    27    71    70    1
    28    70    55   ar
    29    11     1    1
    30    11    24   ar
    31    16    12   ar
    32    16    17    1
    33    12     3    1
    34    55    24   ar
    35    55    56    1
    36    24    25    1
    37    10     4    1
    38    35    34    1
    39    39    38    1
    40     3    14    1
    41     3     5    1
    42    62    61    1
    43    38    14   ar
    44    38    36   ar
    45    14    15   ar
    46     9     4    1
    47     4     5    1
    48     4    65    1
    49    34    61   ar
    50    34    44   ar
    51    37    36    1
    52    36    51   ar
    53    61    72   ar
    54    15     2    1
    55    15    20   ar
    56     2    44    1
    57     2    26    1
    58    51    20   ar
    59    51    52    1
    60    20    21    1
    61    44    42   ar
    62    72    73    1
    63    72    53   ar
    64     7    65    1
    65    65     8    1
    66    65     6    1
    67    26    47   ar
    68    26    40   ar
    69    48    47    1
    70    42    53   ar
    71    42    43    1
    72    53    54    1
    73    41    40    1
    74    47    66   ar
    75    40    59   ar
    76    66    67    1
    77    66    68   ar
    78    59    60    1
    79    59    68   ar
    80    68    69    1
