@<TRIPOS>MOLECULE
1,2,3
 68 73 0 0 0
SMALL
GASTEIGER

@<TRIPOS>ATOM
      1 P           9.3657    0.2025    3.3681 P.3     1  UNL1        0.0000
      2 P          11.5569    3.6926    4.2170 P.3     1  UNL1        0.0000
      3 SI          8.9490    3.0275    3.1189 Si      1  UNL1        0.0000
      4 H           7.5835    3.5153    3.5202 H       1  UNL1        0.0000
      5 C           7.9093   -0.6887    4.0386 C.ar    1  UNL1        0.0000
      6 C           6.6478   -0.5876    3.4615 C.ar    1  UNL1        0.0000
      7 H           6.5012    0.0305    2.5873 H       1  UNL1        0.0000
      8 C           5.5731   -1.2702    4.0044 C.ar    1  UNL1        0.0000
      9 H           4.5995   -1.1849    3.5433 H       1  UNL1        0.0000
     10 C           5.7384   -2.0593    5.1296 C.ar    1  UNL1        0.0000
     11 H           4.8992   -2.5981    5.5446 H       1  UNL1        0.0000
     12 C           6.9837   -2.1419    5.7311 C.ar    1  UNL1        0.0000
     13 H           7.1177   -2.7403    6.6219 H       1  UNL1        0.0000
     14 C           8.0547   -1.4502    5.1971 C.ar    1  UNL1        0.0000
     15 H           9.0151   -1.4793    5.6905 H       1  UNL1        0.0000
     16 C          10.3254   -1.2288    2.7297 C.ar    1  UNL1        0.0000
     17 C          11.2500   -0.9022    1.7378 C.ar    1  UNL1        0.0000
     18 H          11.3625    0.1377    1.4568 H       1  UNL1        0.0000
     19 C          12.0001   -1.8813    1.1167 C.ar    1  UNL1        0.0000
     20 H          12.7082   -1.6117    0.3459 H       1  UNL1        0.0000
     21 C          11.8405   -3.2089    1.4823 C.ar    1  UNL1        0.0000
     22 H          12.4251   -3.9790    1.0005 H       1  UNL1        0.0000
     23 C          10.9187   -3.5445    2.4578 C.ar    1  UNL1        0.0000
     24 H          10.7790   -4.5795    2.7364 H       1  UNL1        0.0000
     25 C          10.1580   -2.5643    3.0752 C.ar    1  UNL1        0.0000
     26 H           9.4213   -2.8549    3.8113 H       1  UNL1        0.0000
     27 C           8.6870    0.6727    1.7488 C.ar    1  UNL1        0.0000
     28 C           8.5013    2.0340    1.5675 C.ar    1  UNL1        0.0000
     29 C           7.9996    2.4857    0.3598 C.ar    1  UNL1        0.0000
     30 H           7.8600    3.5431    0.2020 H       1  UNL1        0.0000
     31 C           7.6861    1.5904   -0.6478 C.ar    1  UNL1        0.0000
     32 H           7.3036    1.9509   -1.5925 H       1  UNL1        0.0000
     33 C           7.8543    0.2278   -0.4487 C.ar    1  UNL1        0.0000
     34 H           7.5979   -0.4704   -1.2332 H       1  UNL1        0.0000
     35 C           8.3530   -0.2395    0.7525 C.ar    1  UNL1        0.0000
     36 H           8.4786   -1.3026    0.9132 H       1  UNL1        0.0000
     37 C           9.7439    4.6095    2.4451 C.ar    1  UNL1        0.0000
     38 C          11.0597    4.7775    2.8526 C.ar    1  UNL1        0.0000
     39 C          11.8555    5.7889    2.3229 C.ar    1  UNL1        0.0000
     40 H          12.8870    5.8973    2.6342 H       1  UNL1        0.0000
     41 C          11.3123    6.6524    1.3896 C.ar    1  UNL1        0.0000
     42 H          11.9228    7.4343    0.9597 H       1  UNL1        0.0000
     43 C           9.9789    6.5322    1.0243 C.ar    1  UNL1        0.0000
     44 H           9.5519    7.2325    0.3201 H       1  UNL1        0.0000
     45 C           9.2017    5.5147    1.5495 C.ar    1  UNL1        0.0000
     46 H           8.1620    5.4295    1.2723 H       1  UNL1        0.0000
     47 C          11.6594    4.9498    5.5553 C.ar    1  UNL1        0.0000
     48 C          11.9376    4.4601    6.8271 C.ar    1  UNL1        0.0000
     49 H          12.0372    3.3927    6.9440 H       1  UNL1        0.0000
     50 C          12.0671    5.3074    7.9103 C.ar    1  UNL1        0.0000
     51 H          12.2939    4.9079    8.8895 H       1  UNL1        0.0000
     52 C          11.8975    6.6712    7.7362 C.ar    1  UNL1        0.0000
     53 H          11.9933    7.3424    8.5773 H       1  UNL1        0.0000
     54 C          11.5927    7.1676    6.4803 C.ar    1  UNL1        0.0000
     55 H          11.4449    8.2293    6.3425 H       1  UNL1        0.0000
     56 C          11.4734    6.3180    5.3937 C.ar    1  UNL1        0.0000
     57 H          11.2261    6.7288    4.4262 H       1  UNL1        0.0000
     58 C          13.3374    3.5729    3.8232 C.ar    1  UNL1        0.0000
     59 C          13.6328    3.0841    2.5514 C.ar    1  UNL1        0.0000
     60 H          12.8139    2.8065    1.8995 H       1  UNL1        0.0000
     61 C          14.9426    2.9537    2.1343 C.ar    1  UNL1        0.0000
     62 H          15.1608    2.5780    1.1446 H       1  UNL1        0.0000
     63 C          15.9774    3.3053    2.9882 C.ar    1  UNL1        0.0000
     64 H          17.0038    3.2022    2.6669 H       1  UNL1        0.0000
     65 C          15.6922    3.7967    4.2501 C.ar    1  UNL1        0.0000
     66 H          16.4966    4.0808    4.9141 H       1  UNL1        0.0000
     67 C          14.3789    3.9372    4.6681 C.ar    1  UNL1        0.0000
     68 H          14.1712    4.3474    5.6476 H       1  UNL1        0.0000
@<TRIPOS>BOND
     1    32    31    1
     2    34    33    1
     3    31    33   ar
     4    31    29   ar
     5    33    35   ar
     6    30    29    1
     7    44    43    1
     8    20    19    1
     9    29    28   ar
    10    35    36    1
    11    35    27   ar
    12    42    41    1
    13    22    21    1
    14    43    41   ar
    15    43    45   ar
    16    19    21   ar
    17    19    17   ar
    18    62    61    1
    19    46    45    1
    20    41    39   ar
    21    18    17    1
    22    21    23   ar
    23    45    37   ar
    24    28    27   ar
    25    28     3    1
    26    17    16   ar
    27    27     1    1
    28    60    59    1
    29    61    59   ar
    30    61    63   ar
    31    39    40    1
    32    39    38   ar
    33    37    38   ar
    34    37     3    1
    35    23    24    1
    36    23    25   ar
    37    59    58   ar
    38     7     6    1
    39    64    63    1
    40    16    25   ar
    41    16     1    1
    42    38     2    1
    43    63    65   ar
    44    25    26    1
    45     3     4    1
    46     1     5    1
    47     6     8   ar
    48     6     5   ar
    49     9     8    1
    50    58     2    1
    51    58    67   ar
    52     8    10   ar
    53     5    14   ar
    54     2    47    1
    55    65    67   ar
    56    65    66    1
    57    57    56    1
    58    67    68    1
    59    10    11    1
    60    10    12   ar
    61    14    15    1
    62    14    12   ar
    63    56    47   ar
    64    56    54   ar
    65    47    48   ar
    66    12    13    1
    67    55    54    1
    68    54    52   ar
    69    48    49    1
    70    48    50   ar
    71    52    50   ar
    72    52    53    1
    73    50    51    1
