@<TRIPOS>MOLECULE
1,2,3
 95 100 0 0 0
SMALL
GASTEIGER

@<TRIPOS>ATOM
      1 P           1.4779    7.7951   13.1240 P.3     1  UNL1        0.0000
      2 P          -0.9127    6.8653   16.0324 P.3     1  UNL1        0.0000
      3 SI          0.4151    5.0617   14.1088 Si      1  UNL1        0.0000
      4 C          -0.3271    3.3017   13.8469 C.3     1  UNL1        0.0000
      5 H           0.2535    2.5570   14.3800 H       1  UNL1        0.0000
      6 H          -0.3268    3.0457   12.7938 H       1  UNL1        0.0000
      7 H          -1.3505    3.2376   14.1996 H       1  UNL1        0.0000
      8 C           2.4502    6.3431   12.5886 C.ar    1  UNL1        0.0000
      9 C           2.0150    5.1055   13.0632 C.ar    1  UNL1        0.0000
     10 C           2.7175    3.9632   12.7162 C.ar    1  UNL1        0.0000
     11 H           2.3742    3.0038   13.0723 H       1  UNL1        0.0000
     12 C           3.8388    4.0352   11.9093 C.ar    1  UNL1        0.0000
     13 H           4.3788    3.1372   11.6448 H       1  UNL1        0.0000
     14 C           4.2578    5.2633   11.4260 C.ar    1  UNL1        0.0000
     15 H           5.1223    5.3260   10.7802 H       1  UNL1        0.0000
     16 C           3.5661    6.4139   11.7613 C.ar    1  UNL1        0.0000
     17 H           3.8994    7.3563   11.3526 H       1  UNL1        0.0000
     18 C           0.4458    5.9272   16.8040 C.ar    1  UNL1        0.0000
     19 C           1.0462    5.0258   15.9230 C.ar    1  UNL1        0.0000
     20 C           2.0673    4.2104   16.3793 C.ar    1  UNL1        0.0000
     21 H           2.5380    3.5175   15.6971 H       1  UNL1        0.0000
     22 C           2.5009    4.2937   17.6919 C.ar    1  UNL1        0.0000
     23 H           3.3059    3.6618   18.0393 H       1  UNL1        0.0000
     24 C           1.9088    5.1968   18.5582 C.ar    1  UNL1        0.0000
     25 H           2.2500    5.2690   19.5812 H       1  UNL1        0.0000
     26 C           0.8788    6.0132   18.1203 C.ar    1  UNL1        0.0000
     27 H           0.4379    6.7159   18.8127 H       1  UNL1        0.0000
     28 C           1.4840    8.8291   11.5758 C.3     1  UNL1        0.0000
     29 H           2.5202    8.9188   11.2295 H       1  UNL1        0.0000
     30 C           0.6719    8.1168   10.4969 C.3     1  UNL1        0.0000
     31 H           1.0779    7.1155   10.3265 H       1  UNL1        0.0000
     32 H          -0.3595    8.0041   10.8429 H       1  UNL1        0.0000
     33 C           0.6839    8.9198    9.2001 C.3     1  UNL1        0.0000
     34 H           1.7084    8.9920    8.8251 H       1  UNL1        0.0000
     35 H           0.0870    8.4070    8.4434 H       1  UNL1        0.0000
     36 C           0.1302   10.3210    9.4405 C.3     1  UNL1        0.0000
     37 H          -0.9115   10.2460    9.7598 H       1  UNL1        0.0000
     38 H           0.1570   10.8983    8.5139 H       1  UNL1        0.0000
     39 C           0.9371   11.0336   10.5215 C.3     1  UNL1        0.0000
     40 H           0.5229   12.0282   10.7009 H       1  UNL1        0.0000
     41 H           1.9689   11.1581   10.1812 H       1  UNL1        0.0000
     42 C           0.9234   10.2280   11.8188 C.3     1  UNL1        0.0000
     43 H           1.5074   10.7482   12.5822 H       1  UNL1        0.0000
     44 H          -0.1031   10.1485   12.1792 H       1  UNL1        0.0000
     45 C           2.6953    8.7020   14.2228 C.3     1  UNL1        0.0000
     46 H           2.1195    9.5448   14.6321 H       1  UNL1        0.0000
     47 C           3.9705    9.2452   13.5820 C.3     1  UNL1        0.0000
     48 H           4.5650    8.4173   13.1927 H       1  UNL1        0.0000
     49 H           3.7421    9.9282   12.7624 H       1  UNL1        0.0000
     50 C           4.7968    9.9896   14.6312 C.3     1  UNL1        0.0000
     51 H           5.7034   10.3851   14.1674 H       1  UNL1        0.0000
     52 H           4.2213   10.8363   15.0140 H       1  UNL1        0.0000
     53 C           5.1650    9.0643   15.7863 C.3     1  UNL1        0.0000
     54 H           5.7456    9.6112   16.5323 H       1  UNL1        0.0000
     55 H           5.7850    8.2465   15.4118 H       1  UNL1        0.0000
     56 C           3.9026    8.4907   16.4208 C.3     1  UNL1        0.0000
     57 H           3.3169    9.3041   16.8571 H       1  UNL1        0.0000
     58 H           4.1634    7.7974   17.2235 H       1  UNL1        0.0000
     59 C           3.0661    7.7669   15.3716 C.3     1  UNL1        0.0000
     60 H           2.1559    7.3720   15.8269 H       1  UNL1        0.0000
     61 H           3.6299    6.9160   14.9784 H       1  UNL1        0.0000
     62 C          -2.2654    5.6379   16.4223 C.3     1  UNL1        0.0000
     63 H          -1.8108    4.6890   16.0990 H       1  UNL1        0.0000
     64 C          -2.6153    5.5084   17.9025 C.3     1  UNL1        0.0000
     65 H          -3.0966    6.4198   18.2619 H       1  UNL1        0.0000
     66 H          -1.7088    5.3409   18.4895 H       1  UNL1        0.0000
     67 C          -3.5749    4.3352   18.0966 C.3     1  UNL1        0.0000
     68 H          -3.0792    3.4097   17.7939 H       1  UNL1        0.0000
     69 H          -3.8370    4.2443   19.1532 H       1  UNL1        0.0000
     70 C          -4.8375    4.5308   17.2619 C.3     1  UNL1        0.0000
     71 H          -5.5078    3.6798   17.3982 H       1  UNL1        0.0000
     72 H          -5.3622    5.4265   17.6036 H       1  UNL1        0.0000
     73 C          -4.4847    4.6845   15.7850 C.3     1  UNL1        0.0000
     74 H          -5.3919    4.8472   15.1995 H       1  UNL1        0.0000
     75 H          -4.0162    3.7646   15.4266 H       1  UNL1        0.0000
     76 C          -3.5238    5.8530   15.5854 C.3     1  UNL1        0.0000
     77 H          -4.0212    6.7808   15.8735 H       1  UNL1        0.0000
     78 H          -3.2475    5.9384   14.5297 H       1  UNL1        0.0000
     79 C          -1.1795    8.2922   17.1995 C.3     1  UNL1        0.0000
     80 H          -1.1921    7.9005   18.2241 H       1  UNL1        0.0000
     81 C           0.0033    9.2451   17.0279 C.3     1  UNL1        0.0000
     82 H           0.9354    8.7173   17.2437 H       1  UNL1        0.0000
     83 H           0.0361    9.5712   15.9831 H       1  UNL1        0.0000
     84 C          -0.1238   10.4605   17.9404 C.3     1  UNL1        0.0000
     85 H          -0.0924   10.1361   18.9841 H       1  UNL1        0.0000
     86 H           0.7198   11.1351   17.7768 H       1  UNL1        0.0000
     87 C          -1.4364   11.1904   17.6771 C.3     1  UNL1        0.0000
     88 H          -1.5303   12.0468   18.3482 H       1  UNL1        0.0000
     89 H          -1.4440   11.5646   16.6509 H       1  UNL1        0.0000
     90 C          -2.6117   10.2397   17.8751 C.3     1  UNL1        0.0000
     91 H          -3.5510   10.7606   17.6774 H       1  UNL1        0.0000
     92 H          -2.6310    9.8983   18.9139 H       1  UNL1        0.0000
     93 C          -2.4902    9.0339   16.9454 C.3     1  UNL1        0.0000
     94 H          -3.3408    8.3699   17.1081 H       1  UNL1        0.0000
     95 H          -2.5249    9.3743   15.9100 H       1  UNL1        0.0000
@<TRIPOS>BOND
     1    35    33    1
     2    38    36    1
     3    34    33    1
     4    33    36    1
     5    33    30    1
     6    36    37    1
     7    36    39    1
     8    41    39    1
     9    31    30    1
    10    30    32    1
    11    30    28    1
    12    39    40    1
    13    39    42    1
    14    15    14    1
    15    29    28    1
    16    17    16    1
    17    14    16   ar
    18    14    12   ar
    19    28    42    1
    20    28     1    1
    21    13    12    1
    22    16     8   ar
    23    42    44    1
    24    42    43    1
    25    12    10   ar
    26     8     9   ar
    27     8     1    1
    28    10     9   ar
    29    10    11    1
    30    49    47    1
    31     6     4    1
    32     9     3    1
    33     1    45    1
    34    48    47    1
    35    47    45    1
    36    47    50    1
    37     4     3    1
    38     4     7    1
    39     4     5    1
    40     3    19    1
    41    51    50    1
    42    45    46    1
    43    45    59    1
    44    78    76    1
    45    50    52    1
    46    50    53    1
    47    61    59    1
    48    74    73    1
    49    59    60    1
    50    59    56    1
    51    55    53    1
    52    75    73    1
    53    76    73    1
    54    76    77    1
    55    76    62    1
    56    21    20    1
    57    73    70    1
    58    53    56    1
    59    53    54    1
    60    95    93    1
    61    19    20   ar
    62    19    18   ar
    63    83    81    1
    64     2    62    1
    65     2    18    1
    66     2    79    1
    67    63    62    1
    68    20    22   ar
    69    56    57    1
    70    56    58    1
    71    62    64    1
    72    89    87    1
    73    18    26   ar
    74    93    94    1
    75    93    79    1
    76    93    90    1
    77    81    79    1
    78    81    82    1
    79    81    84    1
    80    79    80    1
    81    70    71    1
    82    70    72    1
    83    70    67    1
    84    87    90    1
    85    87    84    1
    86    87    88    1
    87    91    90    1
    88    22    23    1
    89    22    24   ar
    90    86    84    1
    91    68    67    1
    92    90    92    1
    93    64    67    1
    94    64    65    1
    95    64    66    1
    96    84    85    1
    97    67    69    1
    98    26    24   ar
    99    26    27    1
   100    24    25    1
