@<TRIPOS>MOLECULE
2,3,4
 99 104 0 0 0
SMALL
GASTEIGER

@<TRIPOS>ATOM
      1 S           1.3094    6.3315   14.2156 S.3     1  UNL1        0.0000
      2 P           6.1542    6.8239   17.3975 P.3     1  UNL1        0.0000
      3 P           6.2376    6.9033   13.3164 P.3     1  UNL1        0.0000
      4 SI          3.8794    6.6787   15.3880 Si      1  UNL1        0.0000
      5 F           0.0822    4.1683   15.1529 F       1  UNL1        0.0000
      6 F          -0.6652    4.8093   13.2352 F       1  UNL1        0.0000
      7 F           1.2529    3.8360   13.3748 F       1  UNL1        0.0000
      8 O           2.4386    5.7753   15.0336 O.3     1  UNL1        0.0000
      9 O           0.4321    7.1591   14.9687 O.3     1  UNL1        0.0000
     10 O           1.6936    6.7489   12.9145 O.3     1  UNL1        0.0000
     11 C           3.5230    7.5459   17.0482 C.ar    1  UNL1        0.0000
     12 C           2.2950    8.0651   17.4434 C.ar    1  UNL1        0.0000
     13 H           1.4219    7.8834   16.8345 H       1  UNL1        0.0000
     14 C           2.1842    8.7951   18.6143 C.ar    1  UNL1        0.0000
     15 H           1.2256    9.1906   18.9168 H       1  UNL1        0.0000
     16 C           3.3068    9.0296   19.3917 C.ar    1  UNL1        0.0000
     17 H           3.2279    9.6174   20.2954 H       1  UNL1        0.0000
     18 C           4.5285    8.4941   19.0236 C.ar    1  UNL1        0.0000
     19 H           5.3902    8.6745   19.6494 H       1  UNL1        0.0000
     20 C           4.6393    7.7346   17.8636 C.ar    1  UNL1        0.0000
     21 C           3.9232    8.1420   14.1486 C.ar    1  UNL1        0.0000
     22 C           2.9086    9.0890   14.1093 C.ar    1  UNL1        0.0000
     23 H           2.1007    9.0354   14.8224 H       1  UNL1        0.0000
     24 C           2.9106   10.0908   13.1556 C.ar    1  UNL1        0.0000
     25 H           2.1107   10.8159   13.1301 H       1  UNL1        0.0000
     26 C           3.9394   10.1583   12.2315 C.ar    1  UNL1        0.0000
     27 H           3.9435   10.9347   11.4795 H       1  UNL1        0.0000
     28 C           4.9633    9.2293   12.2650 C.ar    1  UNL1        0.0000
     29 H           5.7550    9.3041   11.5345 H       1  UNL1        0.0000
     30 C           4.9638    8.2163   13.2190 C.ar    1  UNL1        0.0000
     31 C           6.2537    5.6437   18.8744 C.3     1  UNL1        0.0000
     32 H           6.8509    4.8044   18.5018 H       1  UNL1        0.0000
     33 C           6.9004    6.1124   20.1774 C.3     1  UNL1        0.0000
     34 H           6.3083    6.9079   20.6313 H       1  UNL1        0.0000
     35 H           7.9125    6.4829   20.0057 H       1  UNL1        0.0000
     36 C           6.9750    4.9359   21.1538 C.3     1  UNL1        0.0000
     37 H           7.6108    4.1551   20.7288 H       1  UNL1        0.0000
     38 H           7.4353    5.2666   22.0878 H       1  UNL1        0.0000
     39 C           5.5903    4.3611   21.4345 C.3     1  UNL1        0.0000
     40 H           4.9762    5.1202   21.9243 H       1  UNL1        0.0000
     41 H           5.6736    3.5095   22.1131 H       1  UNL1        0.0000
     42 C           4.9174    3.9350   20.1333 C.3     1  UNL1        0.0000
     43 H           5.4866    3.1220   19.6764 H       1  UNL1        0.0000
     44 H           3.9113    3.5640   20.3383 H       1  UNL1        0.0000
     45 C           4.8479    5.1208   19.1765 C.3     1  UNL1        0.0000
     46 H           4.2564    5.9123   19.6405 H       1  UNL1        0.0000
     47 H           4.3492    4.8432   18.2464 H       1  UNL1        0.0000
     48 C           7.4504    8.1081   17.8120 C.3     1  UNL1        0.0000
     49 H           7.4487    8.2881   18.8912 H       1  UNL1        0.0000
     50 C           7.1316    9.4190   17.0998 C.3     1  UNL1        0.0000
     51 H           7.0362    9.2317   16.0293 H       1  UNL1        0.0000
     52 H           6.1690    9.8037   17.4424 H       1  UNL1        0.0000
     53 C           8.2180   10.4569   17.3778 C.3     1  UNL1        0.0000
     54 H           7.9986   11.3734   16.8267 H       1  UNL1        0.0000
     55 H           8.2112   10.7002   18.4436 H       1  UNL1        0.0000
     56 C           9.6031    9.9434   16.9946 C.3     1  UNL1        0.0000
     57 H           9.6517    9.7978   15.9154 H       1  UNL1        0.0000
     58 H          10.3578   10.6861   17.2628 H       1  UNL1        0.0000
     59 C           9.9054    8.6244   17.6985 C.3     1  UNL1        0.0000
     60 H           9.9489    8.7922   18.7778 H       1  UNL1        0.0000
     61 H          10.8810    8.2484   17.3816 H       1  UNL1        0.0000
     62 C           8.8245    7.5906   17.3958 C.3     1  UNL1        0.0000
     63 H           8.8060    7.3653   16.3250 H       1  UNL1        0.0000
     64 H           9.0478    6.6598   17.9253 H       1  UNL1        0.0000
     65 C           5.7908    5.8707   11.8016 C.3     1  UNL1        0.0000
     66 H           6.3220    4.9216   11.9517 H       1  UNL1        0.0000
     67 C           4.2887    5.5945   11.8352 C.3     1  UNL1        0.0000
     68 H           3.9826    5.2646   12.8280 H       1  UNL1        0.0000
     69 H           3.7380    6.5141   11.6303 H       1  UNL1        0.0000
     70 C           3.9050    4.5480   10.7958 C.3     1  UNL1        0.0000
     71 H           4.4240    3.6083   11.0038 H       1  UNL1        0.0000
     72 H           2.8318    4.3601   10.8520 H       1  UNL1        0.0000
     73 C           4.2824    5.0435    9.4042 C.3     1  UNL1        0.0000
     74 H           4.0416    4.2883    8.6527 H       1  UNL1        0.0000
     75 H           3.7043    5.9413    9.1762 H       1  UNL1        0.0000
     76 C           5.7706    5.3705    9.3514 C.3     1  UNL1        0.0000
     77 H           6.0329    5.7556    8.3629 H       1  UNL1        0.0000
     78 H           6.3472    4.4559    9.5143 H       1  UNL1        0.0000
     79 C           6.1535    6.4024   10.4150 C.3     1  UNL1        0.0000
     80 H           7.2237    6.5953   10.3250 H       1  UNL1        0.0000
     81 H           5.6100    7.3288   10.2217 H       1  UNL1        0.0000
     82 C           7.7471    7.8247   12.6753 C.3     1  UNL1        0.0000
     83 H           7.5114    8.1798   11.6681 H       1  UNL1        0.0000
     84 C           8.9763    6.9221   12.5958 C.3     1  UNL1        0.0000
     85 H           9.2546    6.6090   13.6055 H       1  UNL1        0.0000
     86 H           8.7606    6.0288   12.0043 H       1  UNL1        0.0000
     87 C          10.1480    7.6810   11.9752 C.3     1  UNL1        0.0000
     88 H          11.0236    7.0306   11.9174 H       1  UNL1        0.0000
     89 H           9.8887    7.9815   10.9570 H       1  UNL1        0.0000
     90 C          10.4754    8.9211   12.8017 C.3     1  UNL1        0.0000
     91 H          11.2916    9.4761   12.3349 H       1  UNL1        0.0000
     92 H          10.8077    8.6133   13.7962 H       1  UNL1        0.0000
     93 C           9.2441    9.8132   12.9331 C.3     1  UNL1        0.0000
     94 H           8.9572   10.1832   11.9459 H       1  UNL1        0.0000
     95 H           9.4761   10.6800   13.5559 H       1  UNL1        0.0000
     96 C           8.0811    9.0320   13.5411 C.3     1  UNL1        0.0000
     97 H           7.2087    9.6809   13.6451 H       1  UNL1        0.0000
     98 H           8.3637    8.6770   14.5324 H       1  UNL1        0.0000
     99 C           0.4321    4.6948   13.9812 C.3     1  UNL1        0.0000
@<TRIPOS>BOND
     1    77    76    1
     2    74    73    1
     3    75    73    1
     4    76    73    1
     5    76    78    1
     6    76    79    1
     7    73    70    1
     8    81    79    1
     9    80    79    1
    10    79    65    1
    11    70    72    1
    12    70    71    1
    13    70    67    1
    14    89    87    1
    15    27    26    1
    16    29    28    1
    17    69    67    1
    18    83    82    1
    19    65    67    1
    20    65    66    1
    21    65     3    1
    22    67    68    1
    23    88    87    1
    24    94    93    1
    25    87    84    1
    26    87    90    1
    27    86    84    1
    28    26    28   ar
    29    26    24   ar
    30    28    30   ar
    31    91    90    1
    32    84    82    1
    33    84    85    1
    34    82     3    1
    35    82    96    1
    36    90    93    1
    37    90    92    1
    38    10     1    1
    39    93    96    1
    40    93    95    1
    41    25    24    1
    42    24    22   ar
    43    30     3    1
    44    30    21   ar
    45     6    99    1
    46     7    99    1
    47    96    97    1
    48    96    98    1
    49    99     1    1
    50    99     5    1
    51    22    21   ar
    52    22    23    1
    53    21     4    1
    54     1     9    1
    55     1     8    1
    56     8     4    1
    57     4    11    1
    58    57    56    1
    59    51    50    1
    60    63    62    1
    61    54    53    1
    62    13    12    1
    63    56    58    1
    64    56    53    1
    65    56    59    1
    66    11    12   ar
    67    11    20   ar
    68    50    53    1
    69    50    52    1
    70    50    48    1
    71    53    55    1
    72    61    59    1
    73    62    59    1
    74    62    48    1
    75    62    64    1
    76     2    48    1
    77     2    20    1
    78     2    31    1
    79    12    14   ar
    80    59    60    1
    81    48    49    1
    82    20    18   ar
    83    47    45    1
    84    32    31    1
    85    14    15    1
    86    14    16   ar
    87    31    45    1
    88    31    33    1
    89    18    16   ar
    90    18    19    1
    91    45    46    1
    92    45    42    1
    93    16    17    1
    94    43    42    1
    95    35    33    1
    96    42    44    1
    97    42    39    1
    98    33    34    1
    99    33    36    1
   100    37    36    1
   101    36    39    1
   102    36    38    1
   103    39    40    1
   104    39    41    1
