@<TRIPOS>MOLECULE
1,2,51
 95 100 0 0 0
SMALL
GASTEIGER

@<TRIPOS>ATOM
      1 P           0.6711    6.0530    4.2728 P.3     1  UNL1        0.0000
      2 SI          2.8436    3.7603    4.3266 Si      1  UNL1        0.0000
      3 C           4.0854    3.7601    5.8167 C.3     1  UNL1        0.0000
      4 H           5.0987    3.7603    5.4247 H       1  UNL1        0.0000
      5 H           3.9754    2.8830    6.4434 H       1  UNL1        0.0000
      6 H           3.9752    4.6372    6.4435 H       1  UNL1        0.0000
      7 C           3.2485    5.4362    3.4656 C.ar    1  UNL1        0.0000
      8 C           2.2792    6.4455    3.4941 C.ar    1  UNL1        0.0000
      9 C           2.5499    7.6859    2.9286 C.ar    1  UNL1        0.0000
     10 H           1.7983    8.4624    2.9300 H       1  UNL1        0.0000
     11 C           3.7795    7.9372    2.3439 C.ar    1  UNL1        0.0000
     12 H           3.9801    8.9030    1.9027 H       1  UNL1        0.0000
     13 C           4.7463    6.9473    2.3237 C.ar    1  UNL1        0.0000
     14 H           5.7072    7.1395    1.8685 H       1  UNL1        0.0000
     15 C           4.4760    5.7100    2.8843 C.ar    1  UNL1        0.0000
     16 H           5.2344    4.9424    2.8639 H       1  UNL1        0.0000
     17 C           0.6841    7.0378    5.8573 C.3     1  UNL1        0.0000
     18 H          -0.2293    6.7267    6.3822 H       1  UNL1        0.0000
     19 C           0.6976    8.5587    5.7264 C.3     1  UNL1        0.0000
     20 H          -0.1724    8.9137    5.1701 H       1  UNL1        0.0000
     21 H           1.6015    8.8706    5.1984 H       1  UNL1        0.0000
     22 C           0.6853    9.2031    7.1125 C.3     1  UNL1        0.0000
     23 H           0.6933   10.2910    7.0091 H       1  UNL1        0.0000
     24 H          -0.2337    8.9235    7.6335 H       1  UNL1        0.0000
     25 C           1.8872    8.7464    7.9316 C.3     1  UNL1        0.0000
     26 H           1.8605    9.2078    8.9211 H       1  UNL1        0.0000
     27 H           2.8072    9.0669    7.4361 H       1  UNL1        0.0000
     28 C           1.8833    7.2273    8.0604 C.3     1  UNL1        0.0000
     29 H           0.9935    6.9095    8.6080 H       1  UNL1        0.0000
     30 H           2.7578    6.8960    8.6245 H       1  UNL1        0.0000
     31 C           1.8825    6.5729    6.6827 C.3     1  UNL1        0.0000
     32 H           1.8333    5.4893    6.7953 H       1  UNL1        0.0000
     33 H           2.8058    6.8248    6.1515 H       1  UNL1        0.0000
     34 C          -0.5854    6.9304    3.2184 C.3     1  UNL1        0.0000
     35 H          -0.4541    8.0158    3.2957 H       1  UNL1        0.0000
     36 C          -0.4552    6.5228    1.7530 C.3     1  UNL1        0.0000
     37 H          -0.5275    5.4359    1.6764 H       1  UNL1        0.0000
     38 H           0.5251    6.8127    1.3686 H       1  UNL1        0.0000
     39 C          -1.5598    7.1686    0.9204 C.3     1  UNL1        0.0000
     40 H          -1.4622    8.2568    0.9627 H       1  UNL1        0.0000
     41 H          -1.4581    6.8654   -0.1236 H       1  UNL1        0.0000
     42 C          -2.9322    6.7634    1.4498 C.3     1  UNL1        0.0000
     43 H          -3.7181    7.2338    0.8547 H       1  UNL1        0.0000
     44 H          -3.0467    5.6807    1.3605 H       1  UNL1        0.0000
     45 C          -3.0751    7.1685    2.9137 C.3     1  UNL1        0.0000
     46 H          -4.0498    6.8558    3.2954 H       1  UNL1        0.0000
     47 H          -3.0198    8.2577    2.9949 H       1  UNL1        0.0000
     48 C          -1.9653    6.5431    3.7525 C.3     1  UNL1        0.0000
     49 H          -2.0554    5.4510    3.7220 H       1  UNL1        0.0000
     50 H          -2.0683    6.8555    4.7955 H       1  UNL1        0.0000
     51 P           0.6710    1.4673    4.2728 P.3     1  UNL1        0.0000
     52 C           3.2484    2.0843    3.4657 C.ar    1  UNL1        0.0000
     53 C           2.2791    1.0749    3.4941 C.ar    1  UNL1        0.0000
     54 C           2.5498   -0.1654    2.9286 C.ar    1  UNL1        0.0000
     55 H           1.7983   -0.9419    2.9300 H       1  UNL1        0.0000
     56 C           3.7794   -0.4167    2.3439 C.ar    1  UNL1        0.0000
     57 H           3.9801   -1.3825    1.9027 H       1  UNL1        0.0000
     58 C           4.7462    0.5732    2.3237 C.ar    1  UNL1        0.0000
     59 H           5.7071    0.3810    1.8685 H       1  UNL1        0.0000
     60 C           4.4759    1.8105    2.8843 C.ar    1  UNL1        0.0000
     61 H           5.2344    2.5780    2.8639 H       1  UNL1        0.0000
     62 C           0.6841    0.4826    5.8574 C.3     1  UNL1        0.0000
     63 H          -0.2293    0.7938    6.3823 H       1  UNL1        0.0000
     64 C           0.6975   -1.0383    5.7264 C.3     1  UNL1        0.0000
     65 H          -0.1725   -1.3933    5.1701 H       1  UNL1        0.0000
     66 H           1.6014   -1.3502    5.1983 H       1  UNL1        0.0000
     67 C           0.6853   -1.6827    7.1125 C.3     1  UNL1        0.0000
     68 H           0.6933   -2.7706    7.0090 H       1  UNL1        0.0000
     69 H          -0.2337   -1.4031    7.6335 H       1  UNL1        0.0000
     70 C           1.8873   -1.2259    7.9315 C.3     1  UNL1        0.0000
     71 H           1.8606   -1.6873    8.9210 H       1  UNL1        0.0000
     72 H           2.8072   -1.5465    7.4360 H       1  UNL1        0.0000
     73 C           1.8834    0.2932    8.0604 C.3     1  UNL1        0.0000
     74 H           0.9936    0.6110    8.6080 H       1  UNL1        0.0000
     75 H           2.7579    0.6244    8.6244 H       1  UNL1        0.0000
     76 C           1.8825    0.9475    6.6827 C.3     1  UNL1        0.0000
     77 H           1.8333    2.0312    6.7953 H       1  UNL1        0.0000
     78 H           2.8057    0.6957    6.1514 H       1  UNL1        0.0000
     79 C          -0.5855    0.5899    3.2183 C.3     1  UNL1        0.0000
     80 H          -0.4542   -0.4954    3.2957 H       1  UNL1        0.0000
     81 C          -0.4553    0.9977    1.7529 C.3     1  UNL1        0.0000
     82 H          -0.5276    2.0846    1.6763 H       1  UNL1        0.0000
     83 H           0.5250    0.7077    1.3685 H       1  UNL1        0.0000
     84 C          -1.5598    0.3518    0.9203 C.3     1  UNL1        0.0000
     85 H          -1.4622   -0.7365    0.9627 H       1  UNL1        0.0000
     86 H          -1.4582    0.6549   -0.1236 H       1  UNL1        0.0000
     87 C          -2.9323    0.7568    1.4498 C.3     1  UNL1        0.0000
     88 H          -3.7181    0.2863    0.8548 H       1  UNL1        0.0000
     89 H          -3.0469    1.8395    1.3605 H       1  UNL1        0.0000
     90 C          -3.0751    0.3518    2.9137 C.3     1  UNL1        0.0000
     91 H          -4.0499    0.6645    3.2954 H       1  UNL1        0.0000
     92 H          -3.0198   -0.7374    2.9950 H       1  UNL1        0.0000
     93 C          -1.9654    0.9772    3.7524 C.3     1  UNL1        0.0000
     94 H          -2.0556    2.0694    3.7220 H       1  UNL1        0.0000
     95 H          -2.0684    0.6649    4.7954 H       1  UNL1        0.0000
@<TRIPOS>BOND
     1    86    84    1
     2    41    39    1
     3    43    42    1
     4    88    87    1
     5    84    85    1
     6    84    87    1
     7    84    81    1
     8    39    40    1
     9    39    42    1
    10    39    36    1
    11    89    87    1
    12    44    42    1
    13    83    81    1
    14    38    36    1
    15    87    90    1
    16    42    45    1
    17    82    81    1
    18    37    36    1
    19    81    79    1
    20    36    34    1
    21    14    13    1
    22    59    58    1
    23    12    11    1
    24    57    56    1
    25    58    56   ar
    26    58    60   ar
    27    13    11   ar
    28    13    15   ar
    29    56    54   ar
    30    11     9   ar
    31    16    15    1
    32    61    60    1
    33    60    52   ar
    34    15     7   ar
    35    45    47    1
    36    45    46    1
    37    45    48    1
    38    90    92    1
    39    90    91    1
    40    90    93    1
    41     9    10    1
    42     9     8   ar
    43    54    55    1
    44    54    53   ar
    45    79    80    1
    46    79    93    1
    47    79    51    1
    48    34    35    1
    49    34    48    1
    50    34     1    1
    51     7     8   ar
    52     7     2    1
    53    52    53   ar
    54    52     2    1
    55     8     1    1
    56    53    51    1
    57    94    93    1
    58    49    48    1
    59    93    95    1
    60    48    50    1
    61     1    17    1
    62    51    62    1
    63     2     3    1
    64    20    19    1
    65    65    64    1
    66    66    64    1
    67    21    19    1
    68     4     3    1
    69    64    62    1
    70    64    67    1
    71    19    17    1
    72    19    22    1
    73     3     5    1
    74     3     6    1
    75    17    18    1
    76    17    31    1
    77    62    63    1
    78    62    76    1
    79    78    76    1
    80    33    31    1
    81    76    77    1
    82    76    73    1
    83    31    32    1
    84    31    28    1
    85    68    67    1
    86    23    22    1
    87    22    24    1
    88    22    25    1
    89    67    69    1
    90    67    70    1
    91    72    70    1
    92    27    25    1
    93    70    73    1
    94    70    71    1
    95    25    28    1
    96    25    26    1
    97    73    74    1
    98    73    75    1
    99    28    29    1
   100    28    30    1
