@<TRIPOS>MOLECULE
1,2,51
 95 100 0 0 0
SMALL
GASTEIGER

@<TRIPOS>ATOM
      1 P           0.7146    6.0079    4.3080 P.3     1  UNL1        0.0000
      2 SI          2.8846    3.7627    4.4569 Si      1  UNL1        0.0000
      3 C           4.0457    3.7630    6.0069 C.3     1  UNL1        0.0000
      4 H           5.0756    3.7635    5.6621 H       1  UNL1        0.0000
      5 H           3.9018    2.8857    6.6261 H       1  UNL1        0.0000
      6 H           3.9012    4.6400    6.6263 H       1  UNL1        0.0000
      7 C           3.2892    5.4125    3.5547 C.ar    1  UNL1        0.0000
      8 C           2.3030    6.4026    3.5070 C.ar    1  UNL1        0.0000
      9 C           2.5548    7.6130    2.8736 C.ar    1  UNL1        0.0000
     10 H           1.7833    8.3681    2.8163 H       1  UNL1        0.0000
     11 C           3.7908    7.8534    2.2980 C.ar    1  UNL1        0.0000
     12 H           3.9817    8.7938    1.8007 H       1  UNL1        0.0000
     13 C           4.7793    6.8865    2.3613 C.ar    1  UNL1        0.0000
     14 H           5.7462    7.0731    1.9164 H       1  UNL1        0.0000
     15 C           4.5246    5.6776    2.9877 C.ar    1  UNL1        0.0000
     16 H           5.3005    4.9281    3.0280 H       1  UNL1        0.0000
     17 C           0.7076    7.0986    5.8196 C.3     1  UNL1        0.0000
     18 H          -0.2430    6.8712    6.3221 H       1  UNL1        0.0000
     19 C           0.8099    8.6028    5.5812 C.3     1  UNL1        0.0000
     20 H          -0.0006    8.9595    4.9424 H       1  UNL1        0.0000
     21 H           1.7607    8.8292    5.0938 H       1  UNL1        0.0000
     22 C           0.7497    9.3445    6.9160 C.3     1  UNL1        0.0000
     23 H           0.8127   10.4211    6.7395 H       1  UNL1        0.0000
     24 H          -0.2076    9.1403    7.4017 H       1  UNL1        0.0000
     25 C           1.8852    8.8972    7.8298 C.3     1  UNL1        0.0000
     26 H           1.8260    9.4254    8.7838 H       1  UNL1        0.0000
     27 H           2.8427    9.1481    7.3662 H       1  UNL1        0.0000
     28 C           1.8118    7.3913    8.0586 C.3     1  UNL1        0.0000
     29 H           0.8853    7.1457    8.5815 H       1  UNL1        0.0000
     30 H           2.6445    7.0668    8.6861 H       1  UNL1        0.0000
     31 C           1.8471    6.6432    6.7298 C.3     1  UNL1        0.0000
     32 H           1.7489    5.5718    6.9133 H       1  UNL1        0.0000
     33 H           2.8024    6.8253    6.2266 H       1  UNL1        0.0000
     34 C          -0.6276    6.7287    3.2399 C.3     1  UNL1        0.0000
     35 H          -0.6639    7.8204    3.3279 H       1  UNL1        0.0000
     36 C          -0.4388    6.3469    1.7737 C.3     1  UNL1        0.0000
     37 H          -0.3205    5.2624    1.7027 H       1  UNL1        0.0000
     38 H           0.4719    6.8021    1.3785 H       1  UNL1        0.0000
     39 C          -1.6443    6.7783    0.9429 C.3     1  UNL1        0.0000
     40 H          -1.7436    7.8666    0.9778 H       1  UNL1        0.0000
     41 H          -1.4924    6.4908   -0.0997 H       1  UNL1        0.0000
     42 C          -2.9195    6.1367    1.4808 C.3     1  UNL1        0.0000
     43 H          -3.7785    6.4485    0.8827 H       1  UNL1        0.0000
     44 H          -2.8355    5.0499    1.4046 H       1  UNL1        0.0000
     45 C          -3.1303    6.5265    2.9403 C.3     1  UNL1        0.0000
     46 H          -4.0315    6.0482    3.3305 H       1  UNL1        0.0000
     47 H          -3.2710    7.6087    3.0090 H       1  UNL1        0.0000
     48 C          -1.9253    6.1214    3.7806 C.3     1  UNL1        0.0000
     49 H          -1.8202    5.0235    3.7687 H       1  UNL1        0.0000
     50 H          -2.0776    6.4240    4.8207 H       1  UNL1        0.0000
     51 P           0.7150    1.5172    4.3082 P.3     1  UNL1        0.0000
     52 C           3.2895    2.1126    3.5551 C.ar    1  UNL1        0.0000
     53 C           2.3033    1.1226    3.5071 C.ar    1  UNL1        0.0000
     54 C           2.5552   -0.0879    2.8739 C.ar    1  UNL1        0.0000
     55 H           1.7837   -0.8428    2.8162 H       1  UNL1        0.0000
     56 C           3.7915   -0.3285    2.2990 C.ar    1  UNL1        0.0000
     57 H           3.9825   -1.2689    1.8019 H       1  UNL1        0.0000
     58 C           4.7802    0.6382    2.3629 C.ar    1  UNL1        0.0000
     59 H           5.7473    0.4515    1.9187 H       1  UNL1        0.0000
     60 C           4.5252    1.8473    2.9890 C.ar    1  UNL1        0.0000
     61 H           5.3012    2.5966    3.0297 H       1  UNL1        0.0000
     62 C           0.7082    0.4265    5.8197 C.3     1  UNL1        0.0000
     63 H          -0.2425    0.6535    6.3221 H       1  UNL1        0.0000
     64 C           0.8113   -1.0775    5.5810 C.3     1  UNL1        0.0000
     65 H           0.0009   -1.4346    4.9421 H       1  UNL1        0.0000
     66 H           1.7622   -1.3034    5.0935 H       1  UNL1        0.0000
     67 C           0.7515   -1.8196    6.9157 C.3     1  UNL1        0.0000
     68 H           0.8152   -2.8961    6.7389 H       1  UNL1        0.0000
     69 H          -0.2058   -1.6159    7.4015 H       1  UNL1        0.0000
     70 C           1.8870   -1.3719    7.8294 C.3     1  UNL1        0.0000
     71 H           1.8282   -1.9003    8.7833 H       1  UNL1        0.0000
     72 H           2.8446   -1.6221    7.3656 H       1  UNL1        0.0000
     73 C           1.8129    0.1339    8.0585 C.3     1  UNL1        0.0000
     74 H           0.8862    0.3789    8.5816 H       1  UNL1        0.0000
     75 H           2.6455    0.4587    8.6860 H       1  UNL1        0.0000
     76 C           1.8476    0.8824    6.7299 C.3     1  UNL1        0.0000
     77 H           1.7489    1.9537    6.9136 H       1  UNL1        0.0000
     78 H           2.8029    0.7008    6.2265 H       1  UNL1        0.0000
     79 C          -0.6279    0.7970    3.2404 C.3     1  UNL1        0.0000
     80 H          -0.6655   -0.2945    3.3293 H       1  UNL1        0.0000
     81 C          -0.4386    1.1775    1.7740 C.3     1  UNL1        0.0000
     82 H          -0.3185    2.2619    1.7022 H       1  UNL1        0.0000
     83 H           0.4714    0.7207    1.3790 H       1  UNL1        0.0000
     84 C          -1.6447    0.7475    0.9434 C.3     1  UNL1        0.0000
     85 H          -1.7457   -0.3405    0.9790 H       1  UNL1        0.0000
     86 H          -1.4924    1.0342   -0.0993 H       1  UNL1        0.0000
     87 C          -2.9190    1.3914    1.4810 C.3     1  UNL1        0.0000
     88 H          -3.7784    1.0807    0.8830 H       1  UNL1        0.0000
     89 H          -2.8332    2.4780    1.4043 H       1  UNL1        0.0000
     90 C          -3.1304    1.0025    2.9407 C.3     1  UNL1        0.0000
     91 H          -4.0309    1.4822    3.3306 H       1  UNL1        0.0000
     92 H          -3.2726   -0.0794    3.0099 H       1  UNL1        0.0000
     93 C          -1.9249    1.4063    3.7808 C.3     1  UNL1        0.0000
     94 H          -1.8182    2.5041    3.7683 H       1  UNL1        0.0000
     95 H          -2.0776    1.1045    4.8211 H       1  UNL1        0.0000
@<TRIPOS>BOND
     1    41    39    1
     2    86    84    1
     3    43    42    1
     4    88    87    1
     5    39    40    1
     6    39    42    1
     7    39    36    1
     8    84    85    1
     9    84    87    1
    10    84    81    1
    11    38    36    1
    12    83    81    1
    13    89    87    1
    14    44    42    1
    15    42    45    1
    16    87    90    1
    17    82    81    1
    18    37    36    1
    19    36    34    1
    20    81    79    1
    21    12    11    1
    22    57    56    1
    23    14    13    1
    24    59    58    1
    25    11    13   ar
    26    11     9   ar
    27    56    58   ar
    28    56    54   ar
    29    13    15   ar
    30    58    60   ar
    31    55    54    1
    32    10     9    1
    33     9     8   ar
    34    54    53   ar
    35    45    47    1
    36    45    46    1
    37    45    48    1
    38    90    92    1
    39    90    91    1
    40    90    93    1
    41    15    16    1
    42    15     7   ar
    43    60    61    1
    44    60    52   ar
    45    34    35    1
    46    34    48    1
    47    34     1    1
    48    79    80    1
    49    79    93    1
    50    79    51    1
    51     8     7   ar
    52     8     1    1
    53    53    52   ar
    54    53    51    1
    55     7     2    1
    56    52     2    1
    57    94    93    1
    58    49    48    1
    59    48    50    1
    60    93    95    1
    61     1    17    1
    62    51    62    1
    63     2     3    1
    64    65    64    1
    65    20    19    1
    66    66    64    1
    67    21    19    1
    68    64    62    1
    69    64    67    1
    70    19    17    1
    71    19    22    1
    72     4     3    1
    73    17    18    1
    74    17    31    1
    75    62    63    1
    76    62    76    1
    77     3     5    1
    78     3     6    1
    79    78    76    1
    80    33    31    1
    81    31    32    1
    82    31    28    1
    83    76    77    1
    84    76    73    1
    85    68    67    1
    86    23    22    1
    87    67    69    1
    88    67    70    1
    89    22    24    1
    90    22    25    1
    91    72    70    1
    92    27    25    1
    93    70    73    1
    94    70    71    1
    95    25    28    1
    96    25    26    1
    97    73    74    1
    98    73    75    1
    99    28    29    1
   100    28    30    1
