@<TRIPOS>MOLECULE
1,2,3
 74 79 0 0 0
SMALL
GASTEIGER

@<TRIPOS>ATOM
      1 P          -0.8248   18.9560   13.8804 P.3     1  UNL1        0.0000
      2 P          -0.8824   15.9402   13.7053 P.3     1  UNL1        0.0000
      3 SI          0.7288   16.7762   15.9885 Si      1  UNL1        0.0000
      4 C          -2.3308   18.0909   14.5041 C.3     1  UNL1        0.0000
      5 C          -2.4778   16.8739   13.6144 C.3     1  UNL1        0.0000
      6 C          -1.6540   19.8148   12.4801 C.ar    1  UNL1        0.0000
      7 C          -1.5828   19.3154   11.1852 C.ar    1  UNL1        0.0000
      8 C          -2.2717   19.9205   10.1496 C.ar    1  UNL1        0.0000
      9 C          -3.0377   21.0472   10.3909 C.ar    1  UNL1        0.0000
     10 C          -3.1097   21.5613   11.6752 C.ar    1  UNL1        0.0000
     11 C          -2.4298   20.9496   12.7121 C.ar    1  UNL1        0.0000
     12 C          -0.6571   20.3567   15.0230 C.ar    1  UNL1        0.0000
     13 C          -1.5971   20.7189   15.9823 C.ar    1  UNL1        0.0000
     14 C          -1.3948   21.8481   16.7554 C.ar    1  UNL1        0.0000
     15 C          -0.2631   22.6267   16.5809 C.ar    1  UNL1        0.0000
     16 C           0.6792   22.2690   15.6311 C.ar    1  UNL1        0.0000
     17 C           0.4778   21.1422   14.8586 C.ar    1  UNL1        0.0000
     18 C          -1.2079   14.7127   12.3986 C.ar    1  UNL1        0.0000
     19 C          -1.7228   15.1130   11.1676 C.ar    1  UNL1        0.0000
     20 C          -2.0393   14.1798   10.1993 C.ar    1  UNL1        0.0000
     21 C          -1.8253   12.8322   10.4351 C.ar    1  UNL1        0.0000
     22 C          -1.2640   12.4278   11.6340 C.ar    1  UNL1        0.0000
     23 C          -0.9556   13.3590   12.6088 C.ar    1  UNL1        0.0000
     24 C          -1.2509   14.9853   15.2009 C.ar    1  UNL1        0.0000
     25 C          -0.4746   15.3262   16.3015 C.ar    1  UNL1        0.0000
     26 C          -0.6825   14.6547   17.4979 C.ar    1  UNL1        0.0000
     27 C          -1.6588   13.6789   17.5938 C.ar    1  UNL1        0.0000
     28 C          -2.4554   13.3762   16.4982 C.ar    1  UNL1        0.0000
     29 C          -2.2563   14.0289   15.2961 C.ar    1  UNL1        0.0000
     30 C           2.2986   16.1953   16.9300 C.ar    1  UNL1        0.0000
     31 C           3.4265   15.6668   16.3174 C.ar    1  UNL1        0.0000
     32 C           4.5183   15.2334   17.0489 C.ar    1  UNL1        0.0000
     33 C           4.5081   15.3232   18.4291 C.ar    1  UNL1        0.0000
     34 C           3.3985   15.8566   19.0618 C.ar    1  UNL1        0.0000
     35 C           2.3138   16.2841   18.3182 C.ar    1  UNL1        0.0000
     36 C           0.1273   18.0969   17.2362 C.ar    1  UNL1        0.0000
     37 C           0.9716   19.1628   17.5270 C.ar    1  UNL1        0.0000
     38 C           0.6523   20.0900   18.4992 C.ar    1  UNL1        0.0000
     39 C          -0.5358   19.9744   19.2024 C.ar    1  UNL1        0.0000
     40 C          -1.3958   18.9289   18.9195 C.ar    1  UNL1        0.0000
     41 C          -1.0610   17.9999   17.9489 C.ar    1  UNL1        0.0000
     42 H          -2.1503   17.7925   15.5433 H       1  UNL1        0.0000
     43 H          -3.2152   18.7369   14.4470 H       1  UNL1        0.0000
     44 H          -2.6454   17.2032   12.5830 H       1  UNL1        0.0000
     45 H          -3.3067   16.2241   13.9216 H       1  UNL1        0.0000
     46 H          -0.9665   18.4518   10.9788 H       1  UNL1        0.0000
     47 H          -2.2033   19.5129    9.1509 H       1  UNL1        0.0000
     48 H          -3.5727   21.5256    9.5833 H       1  UNL1        0.0000
     49 H          -3.7012   22.4442   11.8720 H       1  UNL1        0.0000
     50 H          -2.4984   21.3634   13.7085 H       1  UNL1        0.0000
     51 H          -2.4836   20.1231   16.1401 H       1  UNL1        0.0000
     52 H          -2.1286   22.1222   17.4997 H       1  UNL1        0.0000
     53 H          -0.1150   23.5075   17.1885 H       1  UNL1        0.0000
     54 H           1.5703   22.8644   15.4917 H       1  UNL1        0.0000
     55 H           1.2147   20.8480   14.1223 H       1  UNL1        0.0000
     56 H          -1.8783   16.1625   10.9582 H       1  UNL1        0.0000
     57 H          -2.4568   14.5053    9.2573 H       1  UNL1        0.0000
     58 H          -2.0875   12.1019    9.6836 H       1  UNL1        0.0000
     59 H          -1.0737   11.3798   11.8179 H       1  UNL1        0.0000
     60 H          -0.5310   13.0289   13.5466 H       1  UNL1        0.0000
     61 H          -0.0731   14.8986   18.3556 H       1  UNL1        0.0000
     62 H          -1.8108   13.1551   18.5272 H       1  UNL1        0.0000
     63 H          -3.2301   12.6268   16.5825 H       1  UNL1        0.0000
     64 H          -2.8730   13.7904   14.4382 H       1  UNL1        0.0000
     65 H           3.4649   15.5893   15.2396 H       1  UNL1        0.0000
     66 H           5.3794   14.8229   16.5385 H       1  UNL1        0.0000
     67 H           5.3574   14.9851   19.0062 H       1  UNL1        0.0000
     68 H           3.3791   15.9402   20.1400 H       1  UNL1        0.0000
     69 H           1.4643   16.7108   18.8304 H       1  UNL1        0.0000
     70 H           1.9037   19.2548   16.9877 H       1  UNL1        0.0000
     71 H           1.3314   20.9030   18.7154 H       1  UNL1        0.0000
     72 H          -0.7866   20.6931   19.9699 H       1  UNL1        0.0000
     73 H          -2.3247   18.8283   19.4649 H       1  UNL1        0.0000
     74 H          -1.7319   17.1704   17.7619 H       1  UNL1        0.0000
@<TRIPOS>BOND
     1    47     8    1
     2    57    20    1
     3    48     9    1
     4    58    21    1
     5     8     9   ar
     6     8     7   ar
     7    20    21   ar
     8    20    19   ar
     9     9    10   ar
    10    21    22   ar
    11    56    19    1
    12    46     7    1
    13    19    18   ar
    14     7     6   ar
    15    22    59    1
    16    22    23   ar
    17    10    49    1
    18    10    11   ar
    19    18    23   ar
    20    18     2    1
    21     6    11   ar
    22     6     1    1
    23    44     5    1
    24    23    60    1
    25    11    50    1
    26     5     2    1
    27     5    45    1
    28     5     4    1
    29     2    24    1
    30     1     4    1
    31     1    12    1
    32    55    17    1
    33    64    29    1
    34    43     4    1
    35     4    42    1
    36    17    12   ar
    37    17    16   ar
    38    12    13   ar
    39    24    29   ar
    40    24    25   ar
    41    65    31    1
    42    29    28   ar
    43    54    16    1
    44    16    15   ar
    45    13    51    1
    46    13    14   ar
    47     3    25    1
    48     3    30    1
    49     3    36    1
    50    25    26   ar
    51    31    30   ar
    52    31    32   ar
    53    28    63    1
    54    28    27   ar
    55    66    32    1
    56    15    14   ar
    57    15    53    1
    58    14    52    1
    59    30    35   ar
    60    70    37    1
    61    32    33   ar
    62    36    37   ar
    63    36    41   ar
    64    26    27   ar
    65    26    61    1
    66    37    38   ar
    67    27    62    1
    68    74    41    1
    69    41    40   ar
    70    35    69    1
    71    35    34   ar
    72    33    67    1
    73    33    34   ar
    74    38    71    1
    75    38    39   ar
    76    40    39   ar
    77    40    73    1
    78    34    68    1
    79    39    72    1
