@<TRIPOS>MOLECULE
1,3,4
 94 96 0 0 0
SMALL
GASTEIGER

@<TRIPOS>ATOM
      1 SI          6.1389    0.3212    4.6777 Si      1  UNL1        0.0000
      2 P           6.9118   -1.1305    2.0069 P.3     1  UNL1        0.0000
      3 P           3.0924   -0.2006    4.6726 P.3     1  UNL1        0.0000
      4 P           5.1970    2.4629    2.7736 P.3     1  UNL1        0.0000
      5 C           7.2611   -1.2197    4.7424 C.ar    1  UNL1        0.0000
      6 C           7.7364   -1.7211    5.9466 C.ar    1  UNL1        0.0000
      7 H           7.4646   -1.2360    6.8710 H       1  UNL1        0.0000
      8 C           8.5422   -2.8457    5.9713 C.ar    1  UNL1        0.0000
      9 H           8.9084   -3.2290    6.9111 H       1  UNL1        0.0000
     10 C           8.8639   -3.4849    4.7862 C.ar    1  UNL1        0.0000
     11 H           9.4808   -4.3705    4.7987 H       1  UNL1        0.0000
     12 C           8.3881   -2.9984    3.5801 C.ar    1  UNL1        0.0000
     13 H           8.6360   -3.5301    2.6753 H       1  UNL1        0.0000
     14 C           7.5919   -1.8583    3.5464 C.ar    1  UNL1        0.0000
     15 C           5.1870    0.4569    6.3216 C.ar    1  UNL1        0.0000
     16 C           5.8383    0.7655    7.5078 C.ar    1  UNL1        0.0000
     17 H           6.8832    1.0322    7.4864 H       1  UNL1        0.0000
     18 C           5.1545    0.7525    8.7107 C.ar    1  UNL1        0.0000
     19 H           5.6632    1.0011    9.6291 H       1  UNL1        0.0000
     20 C           3.8153    0.4070    8.7249 C.ar    1  UNL1        0.0000
     21 H           3.2756    0.3679    9.6588 H       1  UNL1        0.0000
     22 C           3.1514    0.1173    7.5434 C.ar    1  UNL1        0.0000
     23 H           2.1111   -0.1448    7.5990 H       1  UNL1        0.0000
     24 C           3.8227    0.1606    6.3271 C.ar    1  UNL1        0.0000
     25 C           7.2212    1.8873    4.4943 C.ar    1  UNL1        0.0000
     26 C           8.3993    2.0937    5.1961 C.ar    1  UNL1        0.0000
     27 H           8.7282    1.3588    5.9143 H       1  UNL1        0.0000
     28 C           9.1666    3.2222    4.9596 C.ar    1  UNL1        0.0000
     29 H          10.0819    3.3790    5.5089 H       1  UNL1        0.0000
     30 C           8.7679    4.1394    4.0018 C.ar    1  UNL1        0.0000
     31 H           9.3736    5.0101    3.8026 H       1  UNL1        0.0000
     32 C           7.5940    3.9442    3.2916 C.ar    1  UNL1        0.0000
     33 H           7.3133    4.6631    2.5376 H       1  UNL1        0.0000
     34 C           6.8110    2.8242    3.5425 C.ar    1  UNL1        0.0000
     35 C           8.4750   -0.4250    1.1973 C.3     1  UNL1        0.0000
     36 H           8.1197    0.0228    0.2619 H       1  UNL1        0.0000
     37 C           9.0568    0.6712    2.0804 C.3     1  UNL1        0.0000
     38 H           9.4007    0.2582    3.0267 H       1  UNL1        0.0000
     39 H           8.3219    1.4403    2.2917 H       1  UNL1        0.0000
     40 H           9.9068    1.1387    1.5867 H       1  UNL1        0.0000
     41 C           9.5883   -1.4133    0.8601 C.3     1  UNL1        0.0000
     42 H          10.4240   -0.8529    0.4432 H       1  UNL1        0.0000
     43 H           9.2975   -2.1478    0.1153 H       1  UNL1        0.0000
     44 H           9.9474   -1.9192    1.7524 H       1  UNL1        0.0000
     45 C           6.6896   -2.6536    0.9334 C.3     1  UNL1        0.0000
     46 H           7.6862   -3.0945    0.8341 H       1  UNL1        0.0000
     47 C           6.2183   -2.2081   -0.4478 C.3     1  UNL1        0.0000
     48 H           5.8730   -3.0619   -1.0266 H       1  UNL1        0.0000
     49 H           7.0205   -1.7244   -1.0024 H       1  UNL1        0.0000
     50 H           5.3978   -1.5017   -0.3598 H       1  UNL1        0.0000
     51 C           5.7936   -3.7267    1.5418 C.3     1  UNL1        0.0000
     52 H           4.7707   -3.3850    1.6443 H       1  UNL1        0.0000
     53 H           6.1579   -4.0262    2.5231 H       1  UNL1        0.0000
     54 H           5.7966   -4.6022    0.8947 H       1  UNL1        0.0000
     55 C           2.8200   -2.0492    4.8219 C.3     1  UNL1        0.0000
     56 H           2.4030   -2.3437    3.8544 H       1  UNL1        0.0000
     57 C           1.8420   -2.4619    5.9177 C.3     1  UNL1        0.0000
     58 H           1.6794   -3.5361    5.8466 H       1  UNL1        0.0000
     59 H           0.8757   -1.9792    5.8048 H       1  UNL1        0.0000
     60 H           2.2458   -2.2541    6.9056 H       1  UNL1        0.0000
     61 C           4.1625   -2.7448    5.0251 C.3     1  UNL1        0.0000
     62 H           4.6288   -2.4325    5.9590 H       1  UNL1        0.0000
     63 H           4.8361   -2.5238    4.2005 H       1  UNL1        0.0000
     64 H           4.0158   -3.8223    5.0621 H       1  UNL1        0.0000
     65 C           1.3325    0.4963    4.5615 C.3     1  UNL1        0.0000
     66 H           0.7873   -0.3358    4.1039 H       1  UNL1        0.0000
     67 C           0.6421    0.9075    5.8590 C.3     1  UNL1        0.0000
     68 H           1.2255    1.6424    6.4097 H       1  UNL1        0.0000
     69 H           0.4187    0.0635    6.5043 H       1  UNL1        0.0000
     70 H          -0.3094    1.3683    5.5966 H       1  UNL1        0.0000
     71 C           1.2597    1.6816    3.5970 C.3     1  UNL1        0.0000
     72 H           0.2440    1.7691    3.2168 H       1  UNL1        0.0000
     73 H           1.9158    1.5473    2.7420 H       1  UNL1        0.0000
     74 H           1.5054    2.6071    4.1108 H       1  UNL1        0.0000
     75 C           4.1223    3.7273    3.6360 C.3     1  UNL1        0.0000
     76 H           3.1458    3.6409    3.1505 H       1  UNL1        0.0000
     77 C           3.9874    3.3758    5.1125 C.3     1  UNL1        0.0000
     78 H           4.9574    3.4026    5.6066 H       1  UNL1        0.0000
     79 H           3.5669    2.3804    5.2380 H       1  UNL1        0.0000
     80 H           3.3365    4.0930    5.6094 H       1  UNL1        0.0000
     81 C           4.6191    5.1646    3.4972 C.3     1  UNL1        0.0000
     82 H           3.8801    5.8330    3.9357 H       1  UNL1        0.0000
     83 H           4.7567    5.4619    2.4619 H       1  UNL1        0.0000
     84 H           5.5531    5.3053    4.0353 H       1  UNL1        0.0000
     85 C           5.3033    3.1307    1.0326 C.3     1  UNL1        0.0000
     86 H           5.8923    4.0546    1.0901 H       1  UNL1        0.0000
     87 C           3.9337    3.4416    0.4376 C.3     1  UNL1        0.0000
     88 H           4.0573    3.7556   -0.5973 H       1  UNL1        0.0000
     89 H           3.4249    4.2413    0.9694 H       1  UNL1        0.0000
     90 H           3.3092    2.5535    0.4488 H       1  UNL1        0.0000
     91 C           6.0533    2.1282    0.1639 C.3     1  UNL1        0.0000
     92 H           5.5234    1.1759    0.1556 H       1  UNL1        0.0000
     93 H           7.0636    1.9799    0.5376 H       1  UNL1        0.0000
     94 H           6.1152    2.4904   -0.8605 H       1  UNL1        0.0000
@<TRIPOS>BOND
     1    48    47    1
     2    49    47    1
     3    94    91    1
     4    88    87    1
     5    47    50    1
     6    47    45    1
     7    43    41    1
     8    92    91    1
     9    91    93    1
    10    91    85    1
    11    36    35    1
    12    87    90    1
    13    87    89    1
    14    87    85    1
    15    42    41    1
    16    46    45    1
    17    41    35    1
    18    41    44    1
    19    54    51    1
    20    45    51    1
    21    45     2    1
    22    85    86    1
    23    85     4    1
    24    35     2    1
    25    35    37    1
    26    51    52    1
    27    51    53    1
    28    40    37    1
    29     2    14    1
    30    37    39    1
    31    37    38    1
    32    83    81    1
    33    33    32    1
    34    13    12    1
    35    73    71    1
    36     4    34    1
    37     4    75    1
    38    76    75    1
    39    72    71    1
    40    32    34   ar
    41    32    30   ar
    42    81    75    1
    43    81    82    1
    44    81    84    1
    45    34    25   ar
    46    14    12   ar
    47    14     5   ar
    48    12    10   ar
    49    71    74    1
    50    71    65    1
    51    75    77    1
    52    31    30    1
    53    56    55    1
    54    30    28   ar
    55    66    65    1
    56    63    61    1
    57    25     1    1
    58    25    26   ar
    59    65     3    1
    60    65    67    1
    61     3    55    1
    62     3    24    1
    63     1     5    1
    64     1    15    1
    65     5     6   ar
    66    10    11    1
    67    10     8   ar
    68    55    61    1
    69    55    57    1
    70    28    26   ar
    71    28    29    1
    72    61    64    1
    73    61    62    1
    74    77    79    1
    75    77    78    1
    76    77    80    1
    77    26    27    1
    78    70    67    1
    79    59    57    1
    80    58    57    1
    81    67    68    1
    82    67    69    1
    83    57    60    1
    84     6     8   ar
    85     6     7    1
    86     8     9    1
    87    15    24   ar
    88    15    16   ar
    89    24    22   ar
    90    17    16    1
    91    16    18   ar
    92    22    23    1
    93    22    20   ar
    94    18    20   ar
    95    18    19    1
    96    20    21    1
