@<TRIPOS>MOLECULE
1,2,3
 67 68 0 0 0
SMALL
GASTEIGER

@<TRIPOS>ATOM
      1 P           7.1831    8.8694   13.5884 P.3     1  UNL1        0.0000
      2 P          10.9898    6.3136   12.7982 P.3     1  UNL1        0.0000
      3 SI          9.7839    8.0201   15.1845 Si      1  UNL1        0.0000
      4 C           7.0041    8.6937   15.4101 C.ar    1  UNL1        0.0000
      5 C           8.1310    8.3014   16.1450 C.ar    1  UNL1        0.0000
      6 C           8.0220    8.1912   17.5230 C.ar    1  UNL1        0.0000
      7 H           8.8869    7.8991   18.0976 H       1  UNL1        0.0000
      8 C           6.8263    8.4398   18.1758 C.ar    1  UNL1        0.0000
      9 H           6.7611    8.3415   19.2495 H       1  UNL1        0.0000
     10 C           5.7121    8.8081   17.4437 C.ar    1  UNL1        0.0000
     11 H           4.7713    8.9955   17.9405 H       1  UNL1        0.0000
     12 C           5.8036    8.9362   16.0679 C.ar    1  UNL1        0.0000
     13 H           4.9200    9.2144   15.5138 H       1  UNL1        0.0000
     14 C          10.8907    9.4619   15.8418 C.3     1  UNL1        0.0000
     15 H          10.4677   10.4344   15.6218 H       1  UNL1        0.0000
     16 H          11.8872    9.4316   15.4182 H       1  UNL1        0.0000
     17 H          10.9900    9.3834   16.9212 H       1  UNL1        0.0000
     18 C          10.8556    6.4659   15.5807 C.ar    1  UNL1        0.0000
     19 C          11.3857    5.7458   14.5027 C.ar    1  UNL1        0.0000
     20 C          12.1897    4.6375   14.7444 C.ar    1  UNL1        0.0000
     21 H          12.5819    4.0560   13.9237 H       1  UNL1        0.0000
     22 C          12.4860    4.2471   16.0393 C.ar    1  UNL1        0.0000
     23 H          13.1089    3.3814   16.2117 H       1  UNL1        0.0000
     24 C          11.9819    4.9677   17.1072 C.ar    1  UNL1        0.0000
     25 H          12.2132    4.6696   18.1194 H       1  UNL1        0.0000
     26 C          11.1738    6.0667   16.8701 C.ar    1  UNL1        0.0000
     27 H          10.7781    6.6220   17.7059 H       1  UNL1        0.0000
     28 C           5.5386    8.3056   12.9180 C.3     1  UNL1        0.0000
     29 H           4.7400    8.8725   13.4096 H       1  UNL1        0.0000
     30 C           5.3529    6.8252   13.2312 C.3     1  UNL1        0.0000
     31 H           4.3571    6.4982   12.9358 H       1  UNL1        0.0000
     32 H           5.4846    6.6341   14.2949 H       1  UNL1        0.0000
     33 H           6.0868    6.2378   12.6860 H       1  UNL1        0.0000
     34 C           5.4844    8.5530   11.4132 C.3     1  UNL1        0.0000
     35 H           6.3430    8.0941   10.9275 H       1  UNL1        0.0000
     36 H           5.4861    9.6164   11.1806 H       1  UNL1        0.0000
     37 H           4.5797    8.1152   10.9933 H       1  UNL1        0.0000
     38 C           7.1434   10.7176   13.3191 C.3     1  UNL1        0.0000
     39 H           7.1971   10.8432   12.2326 H       1  UNL1        0.0000
     40 C           8.3956   11.3272   13.9391 C.3     1  UNL1        0.0000
     41 H           8.4366   12.3963   13.7344 H       1  UNL1        0.0000
     42 H           9.2849   10.8641   13.5199 H       1  UNL1        0.0000
     43 H           8.3880   11.1807   15.0185 H       1  UNL1        0.0000
     44 C           5.8974   11.4274   13.8410 C.3     1  UNL1        0.0000
     45 H           5.8214   11.3239   14.9213 H       1  UNL1        0.0000
     46 H           4.9877   11.0506   13.3805 H       1  UNL1        0.0000
     47 H           5.9695   12.4893   13.6088 H       1  UNL1        0.0000
     48 C          10.8235    4.7250   11.8368 C.3     1  UNL1        0.0000
     49 H          11.7785    4.1882   11.8738 H       1  UNL1        0.0000
     50 C           9.7407    3.8509   12.4618 C.3     1  UNL1        0.0000
     51 H           8.7781    4.3531   12.4063 H       1  UNL1        0.0000
     52 H           9.9561    3.6460   13.5085 H       1  UNL1        0.0000
     53 H           9.6691    2.9049   11.9273 H       1  UNL1        0.0000
     54 C          10.4836    5.0453   10.3844 C.3     1  UNL1        0.0000
     55 H          10.3832    4.1263    9.8077 H       1  UNL1        0.0000
     56 H          11.2485    5.6643    9.9198 H       1  UNL1        0.0000
     57 H           9.5428    5.5899   10.3287 H       1  UNL1        0.0000
     58 C          12.6125    7.0299   12.2078 C.3     1  UNL1        0.0000
     59 H          12.4281    7.3193   11.1677 H       1  UNL1        0.0000
     60 C          12.8907    8.2923   13.0183 C.3     1  UNL1        0.0000
     61 H          13.0439    8.0393   14.0675 H       1  UNL1        0.0000
     62 H          12.0579    8.9868   12.9345 H       1  UNL1        0.0000
     63 H          13.7860    8.7892   12.6472 H       1  UNL1        0.0000
     64 C          13.8146    6.0923   12.2667 C.3     1  UNL1        0.0000
     65 H          14.6869    6.6126   11.8730 H       1  UNL1        0.0000
     66 H          13.6677    5.1985   11.6655 H       1  UNL1        0.0000
     67 H          14.0308    5.8033   13.2935 H       1  UNL1        0.0000
@<TRIPOS>BOND
     1    55    54    1
     2    56    54    1
     3    57    54    1
     4    54    48    1
     5    35    34    1
     6    37    34    1
     7    59    58    1
     8    36    34    1
     9    34    28    1
    10    66    64    1
    11    48    49    1
    12    48    50    1
    13    48     2    1
    14    65    64    1
    15    53    50    1
    16    58    64    1
    17    58     2    1
    18    58    60    1
    19    39    38    1
    20    64    67    1
    21    51    50    1
    22    50    52    1
    23    63    60    1
    24    33    30    1
    25     2    19    1
    26    28    30    1
    27    28    29    1
    28    28     1    1
    29    62    60    1
    30    31    30    1
    31    60    61    1
    32    30    32    1
    33    38     1    1
    34    38    44    1
    35    38    40    1
    36    46    44    1
    37    42    40    1
    38     1     4    1
    39    47    44    1
    40    41    40    1
    41    44    45    1
    42    21    20    1
    43    40    43    1
    44    19    20   ar
    45    19    18   ar
    46    20    22   ar
    47     3    18    1
    48     3    14    1
    49     3     5    1
    50     4    12   ar
    51     4     5   ar
    52    16    14    1
    53    13    12    1
    54    18    26   ar
    55    15    14    1
    56    14    17    1
    57    22    23    1
    58    22    24   ar
    59    12    10   ar
    60     5     6   ar
    61    26    24   ar
    62    26    27    1
    63    24    25    1
    64    10    11    1
    65    10     8   ar
    66     6     7    1
    67     6     8   ar
    68     8     9    1
