@<TRIPOS>MOLECULE
1,2,3
 67 68 0 0 0
SMALL
GASTEIGER

@<TRIPOS>ATOM
      1 P          -3.2257   10.5278   11.1865 P.3     1  UNL1        0.0000
      2 P          -3.1198    6.0407   10.3356 P.3     1  UNL1        0.0000
      3 SI         -1.1931    8.4318   10.2270 Si      1  UNL1        0.0000
      4 C          -2.0631   11.1135    9.9079 C.ar    1  UNL1        0.0000
      5 C          -1.1088   10.1951    9.4633 C.ar    1  UNL1        0.0000
      6 C          -0.1486   10.6245    8.5615 C.ar    1  UNL1        0.0000
      7 H           0.6140    9.9361    8.2312 H       1  UNL1        0.0000
      8 C          -0.1460   11.9205    8.0758 C.ar    1  UNL1        0.0000
      9 H           0.6071   12.2340    7.3667 H       1  UNL1        0.0000
     10 C          -1.1162   12.8139    8.4960 C.ar    1  UNL1        0.0000
     11 H          -1.1292   13.8240    8.1119 H       1  UNL1        0.0000
     12 C          -2.0692   12.4148    9.4167 C.ar    1  UNL1        0.0000
     13 H          -2.8191   13.1257    9.7316 H       1  UNL1        0.0000
     14 C           0.5458    8.3063   11.0809 C.3     1  UNL1        0.0000
     15 H           1.1227    9.2057   10.8946 H       1  UNL1        0.0000
     16 H           1.1024    7.4638   10.6849 H       1  UNL1        0.0000
     17 H           0.4848    8.1783   12.1565 H       1  UNL1        0.0000
     18 C          -1.0338    7.0755    8.8725 C.ar    1  UNL1        0.0000
     19 C          -1.9402    6.0147    8.9436 C.ar    1  UNL1        0.0000
     20 C          -1.8875    4.9811    8.0142 C.ar    1  UNL1        0.0000
     21 H          -2.6009    4.1703    8.0416 H       1  UNL1        0.0000
     22 C          -0.9224    4.9878    7.0224 C.ar    1  UNL1        0.0000
     23 H          -0.8897    4.1860    6.2984 H       1  UNL1        0.0000
     24 C           0.0017    6.0167    6.9658 C.ar    1  UNL1        0.0000
     25 H           0.7648    6.0166    6.2004 H       1  UNL1        0.0000
     26 C          -0.0597    7.0472    7.8877 C.ar    1  UNL1        0.0000
     27 H           0.6680    7.8425    7.8390 H       1  UNL1        0.0000
     28 C          -2.5362   11.3160   12.7434 C.3     1  UNL1        0.0000
     29 H          -3.1909   10.9564   13.5495 H       1  UNL1        0.0000
     30 C          -1.1252   10.7942   12.9913 C.3     1  UNL1        0.0000
     31 H          -0.4641   11.0781   12.1737 H       1  UNL1        0.0000
     32 H          -1.1173    9.7114   13.0766 H       1  UNL1        0.0000
     33 H          -0.7278   11.2097   13.9165 H       1  UNL1        0.0000
     34 C          -2.5214   12.8415   12.7452 C.3     1  UNL1        0.0000
     35 H          -2.0781   13.1922   13.6768 H       1  UNL1        0.0000
     36 H          -3.5202   13.2645   12.6768 H       1  UNL1        0.0000
     37 H          -1.9153   13.2192   11.9242 H       1  UNL1        0.0000
     38 C          -4.7719   11.5286   10.8930 C.3     1  UNL1        0.0000
     39 H          -4.4943   12.5886   10.8750 H       1  UNL1        0.0000
     40 C          -5.3707   11.1543    9.5429 C.3     1  UNL1        0.0000
     41 H          -5.6975   10.1178    9.5579 H       1  UNL1        0.0000
     42 H          -4.6349   11.2690    8.7479 H       1  UNL1        0.0000
     43 H          -6.2278   11.7886    9.3204 H       1  UNL1        0.0000
     44 C          -5.7695   11.2859   12.0204 C.3     1  UNL1        0.0000
     45 H          -6.7147   11.7785   11.7972 H       1  UNL1        0.0000
     46 H          -5.4015   11.6678   12.9709 H       1  UNL1        0.0000
     47 H          -5.9528   10.2177   12.1242 H       1  UNL1        0.0000
     48 C          -2.3826    4.7742   11.5076 C.3     1  UNL1        0.0000
     49 H          -3.0333    4.8044   12.3927 H       1  UNL1        0.0000
     50 C          -0.9823    5.2191   11.9150 C.3     1  UNL1        0.0000
     51 H          -0.5647    4.5259   12.6441 H       1  UNL1        0.0000
     52 H          -0.9980    6.2097   12.3605 H       1  UNL1        0.0000
     53 H          -0.3241    5.2449   11.0476 H       1  UNL1        0.0000
     54 C          -2.3254    3.3475   10.9700 C.3     1  UNL1        0.0000
     55 H          -1.7308    3.3048   10.0598 H       1  UNL1        0.0000
     56 H          -3.3136    2.9409   10.7719 H       1  UNL1        0.0000
     57 H          -1.8480    2.7070   11.7111 H       1  UNL1        0.0000
     58 C          -4.6194    5.1465    9.6807 C.3     1  UNL1        0.0000
     59 H          -4.2933    4.1764    9.2886 H       1  UNL1        0.0000
     60 C          -5.6243    4.9258   10.8059 C.3     1  UNL1        0.0000
     61 H          -5.8680    5.8791   11.2719 H       1  UNL1        0.0000
     62 H          -5.2305    4.2586   11.5704 H       1  UNL1        0.0000
     63 H          -6.5407    4.4900   10.4105 H       1  UNL1        0.0000
     64 C          -5.2379    5.9534    8.5459 C.3     1  UNL1        0.0000
     65 H          -6.0691    5.4067    8.1026 H       1  UNL1        0.0000
     66 H          -4.5012    6.1590    7.7703 H       1  UNL1        0.0000
     67 H          -5.6070    6.9028    8.9255 H       1  UNL1        0.0000
@<TRIPOS>BOND
     1    25    24    1
     2    23    22    1
     3    24    22   ar
     4    24    26   ar
     5    22    20   ar
     6     9     8    1
     7    66    64    1
     8    27    26    1
     9    26    18   ar
    10    20    21    1
    11    20    19   ar
    12     8    10   ar
    13     8     6   ar
    14    65    64    1
    15    11    10    1
    16     7     6    1
    17    10    12   ar
    18    64    67    1
    19    64    58    1
    20     6     5   ar
    21    42    40    1
    22    18    19   ar
    23    18     3    1
    24    19     2    1
    25    59    58    1
    26    43    40    1
    27    12    13    1
    28    12     4   ar
    29     5     4   ar
    30     5     3    1
    31    40    41    1
    32    40    38    1
    33    58     2    1
    34    58    60    1
    35     4     1    1
    36    55    54    1
    37     3    14    1
    38     2    48    1
    39    63    60    1
    40    16    14    1
    41    56    54    1
    42    60    61    1
    43    60    62    1
    44    39    38    1
    45    38     1    1
    46    38    44    1
    47    15    14    1
    48    54    48    1
    49    54    57    1
    50    53    50    1
    51    14    17    1
    52     1    28    1
    53    48    50    1
    54    48    49    1
    55    45    44    1
    56    50    52    1
    57    50    51    1
    58    37    34    1
    59    44    47    1
    60    44    46    1
    61    31    30    1
    62    36    34    1
    63    28    34    1
    64    28    30    1
    65    28    29    1
    66    34    35    1
    67    30    32    1
    68    30    33    1
