@<TRIPOS>MOLECULE
1,2,3
 67 68 0 0 0
SMALL
GASTEIGER

@<TRIPOS>ATOM
      1 P          12.6416    9.3056   10.9761 P.3     1  UNL1        0.0000
      2 P          13.2062    9.9269   15.5240 P.3     1  UNL1        0.0000
      3 SI         10.8163    9.8330   13.4754 Si      1  UNL1        0.0000
      4 C          11.0642    8.3947   11.0151 C.ar    1  UNL1        0.0000
      5 C          10.2027    8.6591   12.0856 C.ar    1  UNL1        0.0000
      6 C           8.9486    8.0704   12.0864 C.ar    1  UNL1        0.0000
      7 H           8.2630    8.2886   12.8905 H       1  UNL1        0.0000
      8 C           8.5596    7.2042   11.0786 C.ar    1  UNL1        0.0000
      9 H           7.5815    6.7458   11.1049 H       1  UNL1        0.0000
     10 C           9.4328    6.9169   10.0451 C.ar    1  UNL1        0.0000
     11 H           9.1454    6.2280    9.2637 H       1  UNL1        0.0000
     12 C          10.6795    7.5182   10.0078 C.ar    1  UNL1        0.0000
     13 H          11.3483    7.2816    9.1932 H       1  UNL1        0.0000
     14 C           9.4823   11.2463   13.4460 C.3     1  UNL1        0.0000
     15 H           8.8193   11.1179   12.5986 H       1  UNL1        0.0000
     16 H           9.9010   12.2439   13.3872 H       1  UNL1        0.0000
     17 H           8.8823   11.1991   14.3473 H       1  UNL1        0.0000
     18 C          10.5907    9.0963   15.2337 C.ar    1  UNL1        0.0000
     19 C          11.6853    9.1051   16.1050 C.ar    1  UNL1        0.0000
     20 C          11.5704    8.5488   17.3738 C.ar    1  UNL1        0.0000
     21 H          12.4142    8.5221   18.0473 H       1  UNL1        0.0000
     22 C          10.3697    7.9997   17.7902 C.ar    1  UNL1        0.0000
     23 H          10.2933    7.5603   18.7744 H       1  UNL1        0.0000
     24 C           9.2732    8.0194   16.9473 C.ar    1  UNL1        0.0000
     25 H           8.3319    7.6000   17.2721 H       1  UNL1        0.0000
     26 C           9.3911    8.5671   15.6814 C.ar    1  UNL1        0.0000
     27 H           8.5327    8.5772   15.0276 H       1  UNL1        0.0000
     28 C          13.8116    8.2811    9.9585 C.3     1  UNL1        0.0000
     29 H          13.2762    8.0175    9.0366 H       1  UNL1        0.0000
     30 C          14.1914    6.9979   10.6892 C.3     1  UNL1        0.0000
     31 H          14.7978    6.3660   10.0410 H       1  UNL1        0.0000
     32 H          13.3052    6.4395   10.9901 H       1  UNL1        0.0000
     33 H          14.7758    7.2292   11.5778 H       1  UNL1        0.0000
     34 C          15.0545    9.0964    9.6053 C.3     1  UNL1        0.0000
     35 H          15.5291    9.4695   10.5117 H       1  UNL1        0.0000
     36 H          14.8189    9.9410    8.9604 H       1  UNL1        0.0000
     37 H          15.7717    8.4615    9.0871 H       1  UNL1        0.0000
     38 C          12.2416   10.7069    9.7963 C.3     1  UNL1        0.0000
     39 H          13.1559   11.3157    9.7707 H       1  UNL1        0.0000
     40 C          11.1122   11.5548   10.3687 C.3     1  UNL1        0.0000
     41 H          10.9611   12.4431    9.7569 H       1  UNL1        0.0000
     42 H          11.3448   11.8624   11.3857 H       1  UNL1        0.0000
     43 H          10.1835   10.9877   10.3846 H       1  UNL1        0.0000
     44 C          11.8764   10.2640    8.3824 C.3     1  UNL1        0.0000
     45 H          11.0193    9.5934    8.4026 H       1  UNL1        0.0000
     46 H          12.7016    9.7699    7.8768 H       1  UNL1        0.0000
     47 H          11.6038   11.1383    7.7922 H       1  UNL1        0.0000
     48 C          14.5943    9.1446   16.4845 C.3     1  UNL1        0.0000
     49 H          14.2852    9.1617   17.5381 H       1  UNL1        0.0000
     50 C          14.8027    7.6962   16.0567 C.3     1  UNL1        0.0000
     51 H          15.1627    7.6567   15.0304 H       1  UNL1        0.0000
     52 H          13.8751    7.1282   16.1238 H       1  UNL1        0.0000
     53 H          15.5478    7.2230   16.6955 H       1  UNL1        0.0000
     54 C          15.8864    9.9438   16.3304 C.3     1  UNL1        0.0000
     55 H          16.6847    9.4516   16.8840 H       1  UNL1        0.0000
     56 H          15.7856   10.9592   16.7094 H       1  UNL1        0.0000
     57 H          16.1779    9.9825   15.2828 H       1  UNL1        0.0000
     58 C          13.0764   11.6078   16.3444 C.3     1  UNL1        0.0000
     59 H          13.9792   12.1439   16.0219 H       1  UNL1        0.0000
     60 C          13.0174   11.5681   17.8684 C.3     1  UNL1        0.0000
     61 H          12.8956   12.5814   18.2498 H       1  UNL1        0.0000
     62 H          13.9236   11.1580   18.3061 H       1  UNL1        0.0000
     63 H          12.1644   10.9801   18.2017 H       1  UNL1        0.0000
     64 C          11.8617   12.3516   15.8034 C.3     1  UNL1        0.0000
     65 H          10.9439   11.8379   16.0825 H       1  UNL1        0.0000
     66 H          11.9103   12.4124   14.7179 H       1  UNL1        0.0000
     67 H          11.8283   13.3619   16.2084 H       1  UNL1        0.0000
@<TRIPOS>BOND
     1    47    44    1
     2    46    44    1
     3    44    45    1
     4    44    38    1
     5    36    34    1
     6    29    28    1
     7    37    34    1
     8    13    12    1
     9    11    10    1
    10    34    28    1
    11    34    35    1
    12    41    40    1
    13    39    38    1
    14    38    40    1
    15    38     1    1
    16    28    30    1
    17    28     1    1
    18    12    10   ar
    19    12     4   ar
    20    31    30    1
    21    10     8   ar
    22    40    43    1
    23    40    42    1
    24    30    32    1
    25    30    33    1
    26     1     4    1
    27     4     5   ar
    28     8     9    1
    29     8     6   ar
    30     5     6   ar
    31     5     3    1
    32     6     7    1
    33    15    14    1
    34    16    14    1
    35    14     3    1
    36    14    17    1
    37     3    18    1
    38    66    64    1
    39    27    26    1
    40    51    50    1
    41    18    26   ar
    42    18    19   ar
    43    57    54    1
    44     2    19    1
    45     2    58    1
    46     2    48    1
    47    26    24   ar
    48    64    65    1
    49    64    67    1
    50    64    58    1
    51    59    58    1
    52    50    52    1
    53    50    48    1
    54    50    53    1
    55    19    20   ar
    56    54    48    1
    57    54    56    1
    58    54    55    1
    59    58    60    1
    60    48    49    1
    61    24    25    1
    62    24    22   ar
    63    20    22   ar
    64    20    21    1
    65    22    23    1
    66    60    63    1
    67    60    61    1
    68    60    62    1
