@<TRIPOS>MOLECULE
1,2,3
 95 100 0 0 0
SMALL
GASTEIGER

@<TRIPOS>ATOM
      1 P           2.9130    4.5100    5.6051 P.3     1  UNL1        0.0000
      2 P           4.2711    1.6934    3.7172 P.3     1  UNL1        0.0000
      3 SI          1.7880    1.6500    5.5381 Si      1  UNL1        0.0000
      4 C           1.0642    0.0707    6.3826 C.3     1  UNL1        0.0000
      5 H           0.1421   -0.2232    5.8969 H       1  UNL1        0.0000
      6 H           0.8536    0.2541    7.4290 H       1  UNL1        0.0000
      7 H           1.7522   -0.7631    6.3117 H       1  UNL1        0.0000
      8 C           0.5872    3.0954    5.9479 C.ar    1  UNL1        0.0000
      9 C           1.1311    4.3816    5.9811 C.ar    1  UNL1        0.0000
     10 C           0.3237    5.4739    6.2783 C.ar    1  UNL1        0.0000
     11 H           0.7348    6.4729    6.3080 H       1  UNL1        0.0000
     12 C          -1.0209    5.2913    6.5511 C.ar    1  UNL1        0.0000
     13 H          -1.6436    6.1433    6.7863 H       1  UNL1        0.0000
     14 C          -1.5641    4.0178    6.5290 C.ar    1  UNL1        0.0000
     15 H          -2.6129    3.8750    6.7486 H       1  UNL1        0.0000
     16 C          -0.7600    2.9315    6.2287 C.ar    1  UNL1        0.0000
     17 H          -1.1850    1.9390    6.2197 H       1  UNL1        0.0000
     18 C           1.5507    1.3382    3.6489 C.ar    1  UNL1        0.0000
     19 C           2.6885    1.4048    2.8378 C.ar    1  UNL1        0.0000
     20 C           2.5740    1.2218    1.4658 C.ar    1  UNL1        0.0000
     21 H           3.4451    1.2636    0.8296 H       1  UNL1        0.0000
     22 C           1.3348    0.9895    0.8934 C.ar    1  UNL1        0.0000
     23 H           1.2530    0.8580   -0.1764 H       1  UNL1        0.0000
     24 C           0.2057    0.9241    1.6907 C.ar    1  UNL1        0.0000
     25 H          -0.7616    0.7425    1.2441 H       1  UNL1        0.0000
     26 C           0.3204    1.0945    3.0606 C.ar    1  UNL1        0.0000
     27 H          -0.5617    1.0484    3.6820 H       1  UNL1        0.0000
     28 C           3.4586    5.9334    6.6996 C.3     1  UNL1        0.0000
     29 H           2.9724    6.8348    6.3133 H       1  UNL1        0.0000
     30 C           4.9711    6.0866    6.5412 C.3     1  UNL1        0.0000
     31 H           5.4650    5.1850    6.9220 H       1  UNL1        0.0000
     32 H           5.2276    6.1826    5.4813 H       1  UNL1        0.0000
     33 C           5.4761    7.3100    7.3010 C.3     1  UNL1        0.0000
     34 H           6.5637    7.3779    7.2181 H       1  UNL1        0.0000
     35 H           5.0522    8.2112    6.8495 H       1  UNL1        0.0000
     36 C           5.0675    7.2463    8.7699 C.3     1  UNL1        0.0000
     37 H           5.4025    8.1484    9.2867 H       1  UNL1        0.0000
     38 H           5.5537    6.3908    9.2451 H       1  UNL1        0.0000
     39 C           3.5537    7.0985    8.8988 C.3     1  UNL1        0.0000
     40 H           3.0643    7.9765    8.4689 H       1  UNL1        0.0000
     41 H           3.2745    7.0444    9.9534 H       1  UNL1        0.0000
     42 C           3.0860    5.8367    8.1757 C.3     1  UNL1        0.0000
     43 H           3.5672    4.9799    8.6374 H       1  UNL1        0.0000
     44 H           2.0066    5.7127    8.2845 H       1  UNL1        0.0000
     45 C           2.8609    5.4338    3.9453 C.3     1  UNL1        0.0000
     46 H           3.8715    5.2942    3.5387 H       1  UNL1        0.0000
     47 C           1.8719    4.6849    3.0553 C.3     1  UNL1        0.0000
     48 H           2.0880    3.6168    3.1071 H       1  UNL1        0.0000
     49 H           0.8593    4.8348    3.4376 H       1  UNL1        0.0000
     50 C           1.9343    5.1651    1.6099 C.3     1  UNL1        0.0000
     51 H           2.9276    4.9716    1.1966 H       1  UNL1        0.0000
     52 H           1.2127    4.6081    1.0089 H       1  UNL1        0.0000
     53 C           1.6402    6.6594    1.5463 C.3     1  UNL1        0.0000
     54 H           1.7176    7.0190    0.5178 H       1  UNL1        0.0000
     55 H           0.6195    6.8411    1.8900 H       1  UNL1        0.0000
     56 C           2.6173    7.4174    2.4372 C.3     1  UNL1        0.0000
     57 H           2.3969    8.4873    2.4064 H       1  UNL1        0.0000
     58 H           3.6334    7.2777    2.0582 H       1  UNL1        0.0000
     59 C           2.5485    6.9296    3.8866 C.3     1  UNL1        0.0000
     60 H           1.5465    7.1177    4.2757 H       1  UNL1        0.0000
     61 H           3.2686    7.5116    4.4643 H       1  UNL1        0.0000
     62 C           5.2455    2.9074    2.6663 C.3     1  UNL1        0.0000
     63 H           4.4915    3.6599    2.3983 H       1  UNL1        0.0000
     64 C           6.2471    3.5485    3.6358 C.3     1  UNL1        0.0000
     65 H           5.7179    3.8298    4.5673 H       1  UNL1        0.0000
     66 H           7.0165    2.8173    3.8997 H       1  UNL1        0.0000
     67 C           6.9100    4.7708    3.0130 C.3     1  UNL1        0.0000
     68 H           6.1536    5.5318    2.8016 H       1  UNL1        0.0000
     69 H           7.6331    5.2042    3.7083 H       1  UNL1        0.0000
     70 C           7.6057    4.3794    1.7120 C.3     1  UNL1        0.0000
     71 H           8.0524    5.2612    1.2475 H       1  UNL1        0.0000
     72 H           8.4111    3.6737    1.9304 H       1  UNL1        0.0000
     73 C           6.6134    3.7317    0.7506 C.3     1  UNL1        0.0000
     74 H           7.1252    3.4443   -0.1708 H       1  UNL1        0.0000
     75 H           5.8377    4.4559    0.4884 H       1  UNL1        0.0000
     76 C           5.9640    2.4983    1.3813 C.3     1  UNL1        0.0000
     77 H           6.7397    1.7599    1.5855 H       1  UNL1        0.0000
     78 H           5.2677    2.0621    0.6649 H       1  UNL1        0.0000
     79 C           5.0283    0.0345    3.2843 C.3     1  UNL1        0.0000
     80 H           4.9574   -0.0607    2.1919 H       1  UNL1        0.0000
     81 C           6.4873   -0.1216    3.7060 C.3     1  UNL1        0.0000
     82 H           7.1156    0.6171    3.2058 H       1  UNL1        0.0000
     83 H           6.5773    0.0449    4.7786 H       1  UNL1        0.0000
     84 C           7.0000   -1.5201    3.3696 C.3     1  UNL1        0.0000
     85 H           6.9629   -1.6702    2.2872 H       1  UNL1        0.0000
     86 H           8.0424   -1.6150    3.6841 H       1  UNL1        0.0000
     87 C           6.1481   -2.5830    4.0539 C.3     1  UNL1        0.0000
     88 H           6.5214   -3.5790    3.8055 H       1  UNL1        0.0000
     89 H           6.2162   -2.4618    5.1376 H       1  UNL1        0.0000
     90 C           4.6936   -2.4438    3.6178 C.3     1  UNL1        0.0000
     91 H           4.0776   -3.1923    4.1209 H       1  UNL1        0.0000
     92 H           4.6217   -2.6215    2.5417 H       1  UNL1        0.0000
     93 C           4.1658   -1.0478    3.9342 C.3     1  UNL1        0.0000
     94 H           4.1533   -0.8883    5.0154 H       1  UNL1        0.0000
     95 H           3.1355   -0.9563    3.5822 H       1  UNL1        0.0000
@<TRIPOS>BOND
     1    23    22    1
     2    74    73    1
     3    75    73    1
     4    54    53    1
     5    78    76    1
     6    73    76    1
     7    73    70    1
     8    21    20    1
     9    22    20   ar
    10    22    24   ar
    11    52    50    1
    12    51    50    1
    13    25    24    1
    14    71    70    1
    15    76    77    1
    16    76    62    1
    17    20    19   ar
    18    53    50    1
    19    53    55    1
    20    53    56    1
    21    50    47    1
    22    24    26   ar
    23    70    72    1
    24    70    67    1
    25    58    56    1
    26    80    79    1
    27    85    84    1
    28    63    62    1
    29    57    56    1
    30    56    59    1
    31    92    90    1
    32    62    64    1
    33    62     2    1
    34    68    67    1
    35    19    18   ar
    36    19     2    1
    37    67    64    1
    38    67    69    1
    39    47    48    1
    40    47    49    1
    41    47    45    1
    42    26    18   ar
    43    26    27    1
    44    82    81    1
    45    79    81    1
    46    79     2    1
    47    79    93    1
    48    84    86    1
    49    84    81    1
    50    84    87    1
    51    46    45    1
    52    95    93    1
    53    90    93    1
    54    90    87    1
    55    90    91    1
    56    64    66    1
    57    64    65    1
    58    18     3    1
    59    81    83    1
    60    88    87    1
    61    59    45    1
    62    59    60    1
    63    59    61    1
    64    93    94    1
    65    45     1    1
    66    87    89    1
    67    32    30    1
    68     3     8    1
    69     3     4    1
    70     1     9    1
    71     1    28    1
    72     5     4    1
    73     8     9   ar
    74     8    16   ar
    75     9    10   ar
    76    17    16    1
    77    16    14   ar
    78    10    11    1
    79    10    12   ar
    80     7     4    1
    81    29    28    1
    82     4     6    1
    83    14    12   ar
    84    14    15    1
    85    30    28    1
    86    30    31    1
    87    30    33    1
    88    12    13    1
    89    28    42    1
    90    35    33    1
    91    34    33    1
    92    33    36    1
    93    42    44    1
    94    42    43    1
    95    42    39    1
    96    40    39    1
    97    36    39    1
    98    36    38    1
    99    36    37    1
   100    39    41    1
