@<TRIPOS>MOLECULE
1,2,3
 95 100 0 0 0
SMALL
GASTEIGER

@<TRIPOS>ATOM
      1 P           2.8948    3.6820    5.5618 P.3     1  UNL1        0.0000
      2 P           0.9479    1.5584    3.8316 P.3     1  UNL1        0.0000
      3 SI          3.8093    1.1740    3.9503 Si      1  UNL1        0.0000
      4 C           5.6296    0.7237    3.4756 C.3     1  UNL1        0.0000
      5 H           5.7039    0.3927    2.4470 H       1  UNL1        0.0000
      6 H           5.9828   -0.0776    4.1121 H       1  UNL1        0.0000
      7 H           6.2976    1.5646    3.6125 H       1  UNL1        0.0000
      8 C           3.8602    1.1359    5.8754 C.ar    1  UNL1        0.0000
      9 C           3.4360    2.2640    6.5857 C.ar    1  UNL1        0.0000
     10 C           3.5293    2.2803    7.9742 C.ar    1  UNL1        0.0000
     11 H           3.2394    3.1523    8.5377 H       1  UNL1        0.0000
     12 C           4.0043    1.1740    8.6575 C.ar    1  UNL1        0.0000
     13 H           4.0650    1.1966    9.7366 H       1  UNL1        0.0000
     14 C           4.4047    0.0471    7.9608 C.ar    1  UNL1        0.0000
     15 H           4.7714   -0.8182    8.4943 H       1  UNL1        0.0000
     16 C           4.3415    0.0415    6.5788 C.ar    1  UNL1        0.0000
     17 H           4.6614   -0.8336    6.0317 H       1  UNL1        0.0000
     18 C           2.7772   -0.3611    3.4051 C.ar    1  UNL1        0.0000
     19 C           1.4033   -0.1223    3.3117 C.ar    1  UNL1        0.0000
     20 C           0.5269   -1.1300    2.9356 C.ar    1  UNL1        0.0000
     21 H          -0.5403   -0.9520    2.9121 H       1  UNL1        0.0000
     22 C           1.0266   -2.3760    2.5933 C.ar    1  UNL1        0.0000
     23 H           0.3518   -3.1610    2.2817 H       1  UNL1        0.0000
     24 C           2.3888   -2.6168    2.6569 C.ar    1  UNL1        0.0000
     25 H           2.7744   -3.5902    2.3883 H       1  UNL1        0.0000
     26 C           3.2550   -1.6176    3.0728 C.ar    1  UNL1        0.0000
     27 H           4.3143   -1.8188    3.1353 H       1  UNL1        0.0000
     28 C           4.3525    4.8242    5.7598 C.3     1  UNL1        0.0000
     29 H           4.0694    5.7362    5.2171 H       1  UNL1        0.0000
     30 C           5.5343    4.1882    5.0271 C.3     1  UNL1        0.0000
     31 H           5.8224    3.2627    5.5347 H       1  UNL1        0.0000
     32 H           5.2288    3.9320    4.0051 H       1  UNL1        0.0000
     33 C           6.7176    5.1489    4.9878 C.3     1  UNL1        0.0000
     34 H           6.4382    6.0398    4.4203 H       1  UNL1        0.0000
     35 H           7.5609    4.6778    4.4776 H       1  UNL1        0.0000
     36 C           7.1230    5.5533    6.4018 C.3     1  UNL1        0.0000
     37 H           7.4628    4.6691    6.9470 H       1  UNL1        0.0000
     38 H           7.9515    6.2641    6.3651 H       1  UNL1        0.0000
     39 C           5.9378    6.1727    7.1356 C.3     1  UNL1        0.0000
     40 H           5.6294    7.0858    6.6201 H       1  UNL1        0.0000
     41 H           6.2294    6.4448    8.1531 H       1  UNL1        0.0000
     42 C           4.7666    5.1922    7.1808 C.3     1  UNL1        0.0000
     43 H           3.9347    5.6452    7.7243 H       1  UNL1        0.0000
     44 H           5.0797    4.2934    7.7161 H       1  UNL1        0.0000
     45 C           1.4296    4.5663    6.3408 C.3     1  UNL1        0.0000
     46 H           0.5904    4.0563    5.8386 H       1  UNL1        0.0000
     47 C           1.4191    6.0167    5.8516 C.3     1  UNL1        0.0000
     48 H           2.2011    6.5885    6.3563 H       1  UNL1        0.0000
     49 H           1.6164    6.0434    4.7755 H       1  UNL1        0.0000
     50 C           0.0691    6.6638    6.1443 C.3     1  UNL1        0.0000
     51 H           0.0757    7.7011    5.8026 H       1  UNL1        0.0000
     52 H          -0.7173    6.1381    5.5962 H       1  UNL1        0.0000
     53 C          -0.2284    6.6075    7.6395 C.3     1  UNL1        0.0000
     54 H          -1.2047    7.0518    7.8455 H       1  UNL1        0.0000
     55 H           0.5229    7.1882    8.1805 H       1  UNL1        0.0000
     56 C          -0.2024    5.1635    8.1302 C.3     1  UNL1        0.0000
     57 H          -0.9928    4.5988    7.6285 H       1  UNL1        0.0000
     58 H          -0.4006    5.1302    9.2044 H       1  UNL1        0.0000
     59 C           1.1497    4.5087    7.8401 C.3     1  UNL1        0.0000
     60 H           1.1224    3.4719    8.1827 H       1  UNL1        0.0000
     61 H           1.9239    5.0388    8.3984 H       1  UNL1        0.0000
     62 C           0.3643    1.1968    5.6045 C.3     1  UNL1        0.0000
     63 H           0.9316    1.9256    6.2020 H       1  UNL1        0.0000
     64 C           0.7759   -0.1942    6.0911 C.3     1  UNL1        0.0000
     65 H           0.1955   -0.9569    5.5675 H       1  UNL1        0.0000
     66 H           1.8308   -0.3708    5.8816 H       1  UNL1        0.0000
     67 C           0.5312   -0.3185    7.5928 C.3     1  UNL1        0.0000
     68 H           0.8429   -1.3087    7.9315 H       1  UNL1        0.0000
     69 H           1.1421    0.4190    8.1188 H       1  UNL1        0.0000
     70 C          -0.9418   -0.0942    7.9153 C.3     1  UNL1        0.0000
     71 H          -1.5388   -0.8780    7.4431 H       1  UNL1        0.0000
     72 H          -1.1055   -0.1531    8.9934 H       1  UNL1        0.0000
     73 C          -1.3890    1.2668    7.3951 C.3     1  UNL1        0.0000
     74 H          -0.8438    2.0512    7.9245 H       1  UNL1        0.0000
     75 H          -2.4546    1.4104    7.5907 H       1  UNL1        0.0000
     76 C          -1.1251    1.3905    5.8943 C.3     1  UNL1        0.0000
     77 H          -1.7036    0.6239    5.3733 H       1  UNL1        0.0000
     78 H          -1.4709    2.3691    5.5574 H       1  UNL1        0.0000
     79 C          -0.6147    2.0169    2.9127 C.3     1  UNL1        0.0000
     80 H          -1.4920    1.5090    3.3270 H       1  UNL1        0.0000
     81 C          -0.7388    3.5340    3.0841 C.3     1  UNL1        0.0000
     82 H          -0.8530    3.7899    4.1412 H       1  UNL1        0.0000
     83 H           0.2019    3.9964    2.7331 H       1  UNL1        0.0000
     84 C          -1.9115    4.0995    2.2931 C.3     1  UNL1        0.0000
     85 H          -2.8441    3.6738    2.6747 H       1  UNL1        0.0000
     86 H          -1.9590    5.1828    2.4258 H       1  UNL1        0.0000
     87 C          -1.7661    3.7613    0.8141 C.3     1  UNL1        0.0000
     88 H          -0.8683    4.2458    0.4242 H       1  UNL1        0.0000
     89 H          -2.6226    4.1440    0.2547 H       1  UNL1        0.0000
     90 C          -1.6532    2.2514    0.6303 C.3     1  UNL1        0.0000
     91 H          -1.5230    2.0116   -0.4280 H       1  UNL1        0.0000
     92 H          -2.5794    1.7767    0.9658 H       1  UNL1        0.0000
     93 C          -0.4799    1.6913    1.4299 C.3     1  UNL1        0.0000
     94 H           0.4533    2.1411    1.0794 H       1  UNL1        0.0000
     95 H          -0.4103    0.6131    1.2748 H       1  UNL1        0.0000
@<TRIPOS>BOND
     1    91    90    1
     2    89    87    1
     3    88    87    1
     4    90    87    1
     5    90    92    1
     6    90    93    1
     7    87    84    1
     8    94    93    1
     9    95    93    1
    10    93    79    1
    11    23    22    1
    12    84    86    1
    13    84    85    1
    14    84    81    1
    15    25    24    1
    16     5     4    1
    17    22    24   ar
    18    22    20   ar
    19    24    26   ar
    20    83    81    1
    21    21    20    1
    22    79    81    1
    23    79    80    1
    24    79     2    1
    25    20    19   ar
    26    26    27    1
    27    26    18   ar
    28    81    82    1
    29    19    18   ar
    30    19     2    1
    31    18     3    1
    32     4     7    1
    33     4     3    1
    34     4     6    1
    35     2    62    1
    36     3     8    1
    37    32    30    1
    38    34    33    1
    39    35    33    1
    40    49    47    1
    41    33    30    1
    42    33    36    1
    43    30    31    1
    44    30    28    1
    45    29    28    1
    46    77    76    1
    47    78    76    1
    48     1    28    1
    49     1    45    1
    50     1     9    1
    51    65    64    1
    52    52    50    1
    53    62    76    1
    54    62    64    1
    55    62    63    1
    56    28    42    1
    57    51    50    1
    58    46    45    1
    59    47    50    1
    60    47    45    1
    61    47    48    1
    62     8    16   ar
    63     8     9   ar
    64    66    64    1
    65    76    73    1
    66    17    16    1
    67    64    67    1
    68    50    53    1
    69    45    59    1
    70    38    36    1
    71    36    37    1
    72    36    39    1
    73    16    14   ar
    74     9    10   ar
    75    40    39    1
    76    39    42    1
    77    39    41    1
    78    42    44    1
    79    42    43    1
    80    73    75    1
    81    73    70    1
    82    73    74    1
    83    71    70    1
    84    67    70    1
    85    67    68    1
    86    67    69    1
    87    57    56    1
    88    53    54    1
    89    53    56    1
    90    53    55    1
    91    59    56    1
    92    59    60    1
    93    59    61    1
    94    70    72    1
    95    14    15    1
    96    14    12   ar
    97    10    11    1
    98    10    12   ar
    99    56    58    1
   100    12    13    1
