@<TRIPOS>MOLECULE
1,2,3
 95 100 0 0 0
SMALL
GASTEIGER

@<TRIPOS>ATOM
      1 P           2.8136    3.6501    5.5863 P.3     1  UNL1        0.0000
      2 P           0.8548    1.5392    3.8613 P.3     1  UNL1        0.0000
      3 SI          3.7263    1.1831    3.9301 Si      1  UNL1        0.0000
      4 C           5.5489    0.7433    3.4512 C.3     1  UNL1        0.0000
      5 H           5.6246    0.4281    2.4177 H       1  UNL1        0.0000
      6 H           5.9042   -0.0666    4.0756 H       1  UNL1        0.0000
      7 H           6.2146    1.5838    3.6006 H       1  UNL1        0.0000
      8 C           3.7683    1.0991    5.8545 C.ar    1  UNL1        0.0000
      9 C           3.3457    2.2136    6.5861 C.ar    1  UNL1        0.0000
     10 C           3.4277    2.2017    7.9753 C.ar    1  UNL1        0.0000
     11 H           3.1385    3.0646    8.5535 H       1  UNL1        0.0000
     12 C           3.8901    1.0777    8.6382 C.ar    1  UNL1        0.0000
     13 H           3.9423    1.0763    9.7179 H       1  UNL1        0.0000
     14 C           4.2882   -0.0368    7.9203 C.ar    1  UNL1        0.0000
     15 H           4.6452   -0.9155    8.4381 H       1  UNL1        0.0000
     16 C           4.2364   -0.0132    6.5377 C.ar    1  UNL1        0.0000
     17 H           4.5567   -0.8782    5.9748 H       1  UNL1        0.0000
     18 C           2.6981   -0.3487    3.3633 C.ar    1  UNL1        0.0000
     19 C           1.3196   -0.1264    3.3027 C.ar    1  UNL1        0.0000
     20 C           0.4489   -1.1375    2.9218 C.ar    1  UNL1        0.0000
     21 H          -0.6209   -0.9734    2.9240 H       1  UNL1        0.0000
     22 C           0.9573   -2.3691    2.5432 C.ar    1  UNL1        0.0000
     23 H           0.2865   -3.1564    2.2289 H       1  UNL1        0.0000
     24 C           2.3237   -2.5930    2.5745 C.ar    1  UNL1        0.0000
     25 H           2.7163   -3.5553    2.2775 H       1  UNL1        0.0000
     26 C           3.1850   -1.5916    2.9946 C.ar    1  UNL1        0.0000
     27 H           4.2480   -1.7799    3.0313 H       1  UNL1        0.0000
     28 C           4.2680    4.7910    5.8274 C.3     1  UNL1        0.0000
     29 H           3.9924    5.7245    5.3193 H       1  UNL1        0.0000
     30 C           5.4569    4.1788    5.0851 C.3     1  UNL1        0.0000
     31 H           5.1556    3.9139    4.0643 H       1  UNL1        0.0000
     32 H           5.7619    3.2574    5.5904 H       1  UNL1        0.0000
     33 C           6.6211    5.1631    5.0495 C.3     1  UNL1        0.0000
     34 H           7.4682    4.7173    4.5234 H       1  UNL1        0.0000
     35 H           6.3187    6.0584    4.5009 H       1  UNL1        0.0000
     36 C           7.0305    5.5463    6.4683 C.3     1  UNL1        0.0000
     37 H           7.8431    6.2750    6.4390 H       1  UNL1        0.0000
     38 H           7.3933    4.6583    6.9925 H       1  UNL1        0.0000
     39 C           5.8402    6.1276    7.2245 C.3     1  UNL1        0.0000
     40 H           5.5143    7.0465    6.7309 H       1  UNL1        0.0000
     41 H           6.1341    6.3812    8.2461 H       1  UNL1        0.0000
     42 C           4.6826    5.1298    7.2561 C.3     1  UNL1        0.0000
     43 H           3.8484    5.5634    7.8114 H       1  UNL1        0.0000
     44 H           5.0073    4.2233    7.7710 H       1  UNL1        0.0000
     45 C           1.3363    4.5113    6.3687 C.3     1  UNL1        0.0000
     46 H           0.5029    3.9531    5.9107 H       1  UNL1        0.0000
     47 C           1.2823    5.9306    5.7973 C.3     1  UNL1        0.0000
     48 H           2.0678    6.5453    6.2429 H       1  UNL1        0.0000
     49 H           1.4497    5.8914    4.7137 H       1  UNL1        0.0000
     50 C          -0.0698    6.5741    6.0865 C.3     1  UNL1        0.0000
     51 H          -0.0866    7.5913    5.6896 H       1  UNL1        0.0000
     52 H          -0.8618    6.0088    5.5881 H       1  UNL1        0.0000
     53 C          -0.3292    6.5944    7.5896 C.3     1  UNL1        0.0000
     54 H          -1.3063    7.0370    7.7952 H       1  UNL1        0.0000
     55 H           0.4271    7.2126    8.0794 H       1  UNL1        0.0000
     56 C          -0.2719    5.1789    8.1555 C.3     1  UNL1        0.0000
     57 H          -1.0643    4.5771    7.7020 H       1  UNL1        0.0000
     58 H          -0.4472    5.2008    9.2338 H       1  UNL1        0.0000
     59 C           1.0833    4.5267    7.8733 C.3     1  UNL1        0.0000
     60 H           1.0714    3.5076    8.2653 H       1  UNL1        0.0000
     61 H           1.8604    5.0901    8.3929 H       1  UNL1        0.0000
     62 C           0.2811    1.1371    5.6296 C.3     1  UNL1        0.0000
     63 H           0.8726    1.8346    6.2416 H       1  UNL1        0.0000
     64 C           0.6646   -0.2750    6.0763 C.3     1  UNL1        0.0000
     65 H           0.0618   -1.0115    5.5406 H       1  UNL1        0.0000
     66 H           1.7137   -0.4701    5.8514 H       1  UNL1        0.0000
     67 C           0.4340   -0.4300    7.5775 C.3     1  UNL1        0.0000
     68 H           0.7202   -1.4371    7.8872 H       1  UNL1        0.0000
     69 H           1.0727    0.2761    8.1136 H       1  UNL1        0.0000
     70 C          -1.0276   -0.1709    7.9261 C.3     1  UNL1        0.0000
     71 H          -1.6541   -0.9254    7.4443 H       1  UNL1        0.0000
     72 H          -1.1777   -0.2513    9.0047 H       1  UNL1        0.0000
     73 C          -1.4428    1.2144    7.4451 C.3     1  UNL1        0.0000
     74 H          -0.8657    1.9706    7.9823 H       1  UNL1        0.0000
     75 H          -2.5004    1.3845    7.6617 H       1  UNL1        0.0000
     76 C          -1.1987    1.3626    5.9434 C.3     1  UNL1        0.0000
     77 H          -1.8051    0.6221    5.4162 H       1  UNL1        0.0000
     78 H          -1.5241    2.3565    5.6307 H       1  UNL1        0.0000
     79 C          -0.7162    2.0044    2.9574 C.3     1  UNL1        0.0000
     80 H          -1.5943    1.5043    3.3793 H       1  UNL1        0.0000
     81 C          -0.8243    3.5225    3.1339 C.3     1  UNL1        0.0000
     82 H          -0.9212    3.7762    4.1932 H       1  UNL1        0.0000
     83 H           0.1189    3.9760    2.7698 H       1  UNL1        0.0000
     84 C          -2.0046    4.1013    2.3639 C.3     1  UNL1        0.0000
     85 H          -2.9337    3.6850    2.7638 H       1  UNL1        0.0000
     86 H          -2.0396    5.1851    2.4979 H       1  UNL1        0.0000
     87 C          -1.8937    3.7623    0.8820 C.3     1  UNL1        0.0000
     88 H          -2.7618    4.1479    0.3432 H       1  UNL1        0.0000
     89 H          -1.0042    4.2445    0.4704 H       1  UNL1        0.0000
     90 C          -1.7902    2.2521    0.6943 C.3     1  UNL1        0.0000
     91 H          -1.6810    2.0138   -0.3666 H       1  UNL1        0.0000
     92 H          -2.7119    1.7807    1.0464 H       1  UNL1        0.0000
     93 C          -0.6046    1.6857    1.4711 C.3     1  UNL1        0.0000
     94 H          -0.5406    0.6084    1.3092 H       1  UNL1        0.0000
     95 H           0.3237    2.1351    1.1060 H       1  UNL1        0.0000
@<TRIPOS>BOND
     1    91    90    1
     2    88    87    1
     3    89    87    1
     4    90    87    1
     5    90    92    1
     6    90    93    1
     7    87    84    1
     8    95    93    1
     9    94    93    1
    10    93    79    1
    11    23    22    1
    12    25    24    1
    13    84    86    1
    14    84    85    1
    15    84    81    1
    16     5     4    1
    17    22    24   ar
    18    22    20   ar
    19    24    26   ar
    20    83    81    1
    21    20    21    1
    22    20    19   ar
    23    79    81    1
    24    79    80    1
    25    79     2    1
    26    26    27    1
    27    26    18   ar
    28    81    82    1
    29    19    18   ar
    30    19     2    1
    31    18     3    1
    32     4     7    1
    33     4     3    1
    34     4     6    1
    35     2    62    1
    36     3     8    1
    37    31    30    1
    38    35    33    1
    39    34    33    1
    40    49    47    1
    41    33    30    1
    42    33    36    1
    43    30    32    1
    44    30    28    1
    45    29    28    1
    46    77    76    1
    47    65    64    1
    48     1    28    1
    49     1    45    1
    50     1     9    1
    51    52    50    1
    52    62    76    1
    53    62    64    1
    54    62    63    1
    55    78    76    1
    56    51    50    1
    57    47    50    1
    58    47    48    1
    59    47    45    1
    60    28    42    1
    61    66    64    1
    62     8    16   ar
    63     8     9   ar
    64    46    45    1
    65    76    73    1
    66    17    16    1
    67    64    67    1
    68    50    53    1
    69    45    59    1
    70    37    36    1
    71    36    38    1
    72    36    39    1
    73    16    14   ar
    74     9    10   ar
    75    40    39    1
    76    39    42    1
    77    39    41    1
    78    42    44    1
    79    42    43    1
    80    71    70    1
    81    73    75    1
    82    73    70    1
    83    73    74    1
    84    67    68    1
    85    67    70    1
    86    67    69    1
    87    53    54    1
    88    53    55    1
    89    53    56    1
    90    57    56    1
    91    59    56    1
    92    59    60    1
    93    59    61    1
    94    14    15    1
    95    14    12   ar
    96    70    72    1
    97    10    11    1
    98    10    12   ar
    99    56    58    1
   100    12    13    1
