@<TRIPOS>MOLECULE
1,2,3
 79 80 0 0 0
SMALL
GASTEIGER

@<TRIPOS>ATOM
      1 P           0.5145    3.8898    4.2233 P.3     1  UNL1        0.0000
      2 P           3.8254    0.5260    4.2117 P.3     1  UNL1        0.0000
      3 SI          3.5904    3.6081    3.5071 Si      1  UNL1        0.0000
      4 C           1.1379    4.9115    2.8269 C.ar    1  UNL1        0.0000
      5 C           0.3321    5.8074    2.1301 C.ar    1  UNL1        0.0000
      6 C           0.8470    6.5785    1.1034 C.ar    1  UNL1        0.0000
      7 C           2.1856    6.4763    0.7709 C.ar    1  UNL1        0.0000
      8 C           2.9907    5.5958    1.4697 C.ar    1  UNL1        0.0000
      9 C           2.4896    4.7977    2.4857 C.ar    1  UNL1        0.0000
     10 C           4.7619    2.4931    2.4804 C.ar    1  UNL1        0.0000
     11 C           5.5677    2.9856    1.4662 C.ar    1  UNL1        0.0000
     12 C           6.4370    2.1700    0.7656 C.ar    1  UNL1        0.0000
     13 C           6.5196    0.8291    1.0940 C.ar    1  UNL1        0.0000
     14 C           5.7404    0.3222    2.1184 C.ar    1  UNL1        0.0000
     15 C           4.8561    1.1390    2.8175 C.ar    1  UNL1        0.0000
     16 C           4.8736    4.8684    4.2244 C.3     1  UNL1        0.0000
     17 C           0.3451    5.2170    5.5892 C.3     1  UNL1        0.0000
     18 C           1.7694    5.6480    5.9397 C.3     1  UNL1        0.0000
     19 C          -0.2924    4.5629    6.8133 C.3     1  UNL1        0.0000
     20 C          -0.4074    6.4913    5.2059 C.3     1  UNL1        0.0000
     21 C          -1.2510    3.3267    3.7003 C.3     1  UNL1        0.0000
     22 C          -2.4054    4.3290    3.7877 C.3     1  UNL1        0.0000
     23 C          -1.1254    2.8361    2.2557 C.3     1  UNL1        0.0000
     24 C          -1.6527    2.1440    4.5899 C.3     1  UNL1        0.0000
     25 C           5.1499    0.3279    5.5764 C.3     1  UNL1        0.0000
     26 C           5.6075    1.7433    5.9301 C.3     1  UNL1        0.0000
     27 C           6.4102   -0.4474    5.1921 C.3     1  UNL1        0.0000
     28 C           4.4840   -0.3004    6.7988 C.3     1  UNL1        0.0000
     29 C           3.2329   -1.2265    3.6782 C.3     1  UNL1        0.0000
     30 C           4.2152   -2.3980    3.7643 C.3     1  UNL1        0.0000
     31 C           2.0401   -1.6108    4.5622 C.3     1  UNL1        0.0000
     32 C           2.7497   -1.0862    2.2323 C.3     1  UNL1        0.0000
     33 H          -0.7117    5.9162    2.3726 H       1  UNL1        0.0000
     34 H           0.2012    7.2610    0.5691 H       1  UNL1        0.0000
     35 H           2.5970    7.0797   -0.0257 H       1  UNL1        0.0000
     36 H           4.0368    5.5282    1.2139 H       1  UNL1        0.0000
     37 H           5.5153    4.0334    1.2134 H       1  UNL1        0.0000
     38 H           7.0470    2.5752   -0.0293 H       1  UNL1        0.0000
     39 H           7.1932    0.1752    0.5582 H       1  UNL1        0.0000
     40 H           5.8334   -0.7240    2.3575 H       1  UNL1        0.0000
     41 H           4.4078    5.6326    4.8359 H       1  UNL1        0.0000
     42 H           5.6347    4.3864    4.8274 H       1  UNL1        0.0000
     43 H           5.3773    5.3699    3.4034 H       1  UNL1        0.0000
     44 H           1.7453    6.3996    6.7285 H       1  UNL1        0.0000
     45 H           2.3597    4.8077    6.2912 H       1  UNL1        0.0000
     46 H           2.2565    6.0824    5.0684 H       1  UNL1        0.0000
     47 H           0.1862    3.6057    7.0160 H       1  UNL1        0.0000
     48 H          -0.1642    5.2023    7.6865 H       1  UNL1        0.0000
     49 H          -1.3586    4.4020    6.6718 H       1  UNL1        0.0000
     50 H          -0.3404    7.1908    6.0399 H       1  UNL1        0.0000
     51 H           0.0471    6.9669    4.3399 H       1  UNL1        0.0000
     52 H          -1.4587    6.3232    5.0091 H       1  UNL1        0.0000
     53 H          -3.2905    3.8579    3.3574 H       1  UNL1        0.0000
     54 H          -2.6396    4.5746    4.8204 H       1  UNL1        0.0000
     55 H          -2.2333    5.2444    3.2324 H       1  UNL1        0.0000
     56 H          -1.0081    3.6633    1.5592 H       1  UNL1        0.0000
     57 H          -0.2650    2.1788    2.1514 H       1  UNL1        0.0000
     58 H          -2.0166    2.2755    1.9752 H       1  UNL1        0.0000
     59 H          -1.6001    2.4025    5.6442 H       1  UNL1        0.0000
     60 H          -2.6751    1.8454    4.3599 H       1  UNL1        0.0000
     61 H          -1.0075    1.2890    4.4215 H       1  UNL1        0.0000
     62 H           6.3575    1.7035    6.7197 H       1  UNL1        0.0000
     63 H           6.0522    2.2237    5.0602 H       1  UNL1        0.0000
     64 H           4.7782    2.3489    6.2817 H       1  UNL1        0.0000
     65 H           7.1119   -0.3917    6.0251 H       1  UNL1        0.0000
     66 H           6.2232   -1.4959    4.9972 H       1  UNL1        0.0000
     67 H           6.8927   -0.0025    4.3250 H       1  UNL1        0.0000
     68 H           3.5379    0.1984    7.0054 H       1  UNL1        0.0000
     69 H           4.2989   -1.3621    6.6524 H       1  UNL1        0.0000
     70 H           5.1274   -0.1906    7.6714 H       1  UNL1        0.0000
     71 H           4.4501   -2.6426    4.7970 H       1  UNL1        0.0000
     72 H           3.7324   -3.2723    3.3250 H       1  UNL1        0.0000
     73 H           5.1369   -2.2373    3.2160 H       1  UNL1        0.0000
     74 H           1.7372   -2.6341    4.3418 H       1  UNL1        0.0000
     75 H           2.2896   -1.5466    5.6181 H       1  UNL1        0.0000
     76 H           1.1905   -0.9626    4.3781 H       1  UNL1        0.0000
     77 H           2.1692   -1.9636    1.9486 H       1  UNL1        0.0000
     78 H           2.1128   -0.2104    2.1281 H       1  UNL1        0.0000
     79 H           3.5812   -0.9868    1.5384 H       1  UNL1        0.0000
@<TRIPOS>BOND
     1    38    12    1
     2    35     7    1
     3    39    13    1
     4    34     6    1
     5    12    13   ar
     6    12    11   ar
     7     7     6   ar
     8     7     8   ar
     9    13    14   ar
    10     6     5   ar
    11    37    11    1
    12    36     8    1
    13    11    10   ar
    14     8     9   ar
    15    79    32    1
    16    56    23    1
    17    77    32    1
    18    58    23    1
    19    14    40    1
    20    14    15   ar
    21    78    32    1
    22     5    33    1
    23     5     4   ar
    24    57    23    1
    25    32    29    1
    26    23    21    1
    27    10    15   ar
    28    10     3    1
    29     9     4   ar
    30     9     3    1
    31    15     2    1
    32     4     1    1
    33    73    30    1
    34    55    22    1
    35    72    30    1
    36    53    22    1
    37    43    16    1
    38     3    16    1
    39    29    30    1
    40    29     2    1
    41    29    31    1
    42    21    22    1
    43    21     1    1
    44    21    24    1
    45    30    71    1
    46    22    54    1
    47     2    25    1
    48     1    17    1
    49    16    42    1
    50    16    41    1
    51    67    27    1
    52    51    20    1
    53    74    31    1
    54    60    24    1
    55    76    31    1
    56    61    24    1
    57    31    75    1
    58    24    59    1
    59    66    27    1
    60    52    20    1
    61    63    26    1
    62    46    18    1
    63    27    25    1
    64    27    65    1
    65    20    17    1
    66    20    50    1
    67    25    26    1
    68    25    28    1
    69    17    18    1
    70    17    19    1
    71    26    64    1
    72    26    62    1
    73    18    45    1
    74    18    44    1
    75    69    28    1
    76    49    19    1
    77    28    68    1
    78    28    70    1
    79    19    47    1
    80    19    48    1
