@<TRIPOS>MOLECULE
1,2,3
 95 100 0 0 0
SMALL
GASTEIGER

@<TRIPOS>ATOM
      1 P           0.1667    6.3286    6.3764 P.3     1  UNL1        0.0000
      2 P          -2.3253    3.0978    7.5691 P.3     1  UNL1        0.0000
      3 SI         -0.9114    3.8156    4.8891 Si      1  UNL1        0.0000
      4 C           0.0055    6.5042    4.5674 C.ar    1  UNL1        0.0000
      5 C           0.3858    7.6533    3.8805 C.ar    1  UNL1        0.0000
      6 C           0.2183    7.7331    2.5102 C.ar    1  UNL1        0.0000
      7 C          -0.3193    6.6605    1.8191 C.ar    1  UNL1        0.0000
      8 C          -0.6754    5.5126    2.5037 C.ar    1  UNL1        0.0000
      9 C          -0.5277    5.4146    3.8792 C.ar    1  UNL1        0.0000
     10 C          -2.8481    3.8547    4.9847 C.ar    1  UNL1        0.0000
     11 C          -3.6586    4.1944    3.9125 C.ar    1  UNL1        0.0000
     12 C          -5.0351    4.2579    4.0410 C.ar    1  UNL1        0.0000
     13 C          -5.6240    3.9783    5.2621 C.ar    1  UNL1        0.0000
     14 C          -4.8358    3.6291    6.3445 C.ar    1  UNL1        0.0000
     15 C          -3.4532    3.5630    6.2113 C.ar    1  UNL1        0.0000
     16 C          -0.5876    2.4741    3.5234 C.3     1  UNL1        0.0000
     17 C           1.8053    7.1662    6.6816 C.3     1  UNL1        0.0000
     18 C           2.8860    6.3739    5.9518 C.3     1  UNL1        0.0000
     19 C           4.2656    6.9786    6.1936 C.3     1  UNL1        0.0000
     20 C           4.5694    7.0669    7.6866 C.3     1  UNL1        0.0000
     21 C           3.4851    7.8627    8.4065 C.3     1  UNL1        0.0000
     22 C           2.1171    7.2276    8.1739 C.3     1  UNL1        0.0000
     23 C          -1.0808    7.5800    7.0033 C.3     1  UNL1        0.0000
     24 C          -0.7960    9.0628    6.7777 C.3     1  UNL1        0.0000
     25 C          -1.9190    9.9030    7.3860 C.3     1  UNL1        0.0000
     26 C          -3.2630    9.5402    6.7633 C.3     1  UNL1        0.0000
     27 C          -3.5512    8.0564    6.9679 C.3     1  UNL1        0.0000
     28 C          -2.4260    7.2157    6.3757 C.3     1  UNL1        0.0000
     29 C          -2.5213    1.2301    7.5623 C.3     1  UNL1        0.0000
     30 C          -1.9818    0.6970    6.2398 C.3     1  UNL1        0.0000
     31 C          -1.9757   -0.8276    6.2218 C.3     1  UNL1        0.0000
     32 C          -3.3857   -1.3604    6.4518 C.3     1  UNL1        0.0000
     33 C          -3.9354   -0.8274    7.7701 C.3     1  UNL1        0.0000
     34 C          -3.9364    0.7011    7.7842 C.3     1  UNL1        0.0000
     35 C          -3.2589    3.5451    9.1237 C.3     1  UNL1        0.0000
     36 C          -2.5732    2.9537   10.3557 C.3     1  UNL1        0.0000
     37 C          -3.2870    3.3946   11.6313 C.3     1  UNL1        0.0000
     38 C          -3.3140    4.9161   11.7263 C.3     1  UNL1        0.0000
     39 C          -4.0272    5.5012   10.5122 C.3     1  UNL1        0.0000
     40 C          -3.3314    5.0658    9.2267 C.3     1  UNL1        0.0000
     41 H           0.8326    8.4899    4.3981 H       1  UNL1        0.0000
     42 H           0.5155    8.6284    1.9818 H       1  UNL1        0.0000
     43 H          -0.4467    6.7181    0.7468 H       1  UNL1        0.0000
     44 H          -1.0642    4.6701    1.9518 H       1  UNL1        0.0000
     45 H          -3.2031    4.4288    2.9617 H       1  UNL1        0.0000
     46 H          -5.6495    4.5325    3.1948 H       1  UNL1        0.0000
     47 H          -6.6980    4.0334    5.3744 H       1  UNL1        0.0000
     48 H          -5.3149    3.4209    7.2904 H       1  UNL1        0.0000
     49 H          -0.4248    1.4870    3.9403 H       1  UNL1        0.0000
     50 H           0.2907    2.7360    2.9428 H       1  UNL1        0.0000
     51 H          -1.4304    2.3999    2.8447 H       1  UNL1        0.0000
     52 H           1.7749    8.1842    6.2784 H       1  UNL1        0.0000
     53 H           2.8588    5.3413    6.3135 H       1  UNL1        0.0000
     54 H           2.6705    6.3518    4.8800 H       1  UNL1        0.0000
     55 H           5.0275    6.3765    5.6927 H       1  UNL1        0.0000
     56 H           4.2987    7.9818    5.7608 H       1  UNL1        0.0000
     57 H           5.5430    7.5376    7.8402 H       1  UNL1        0.0000
     58 H           4.6169    6.0608    8.1102 H       1  UNL1        0.0000
     59 H           3.4801    8.8896    8.0312 H       1  UNL1        0.0000
     60 H           3.6988    7.8992    9.4768 H       1  UNL1        0.0000
     61 H           2.1179    6.2151    8.5831 H       1  UNL1        0.0000
     62 H           1.3469    7.7967    8.7003 H       1  UNL1        0.0000
     63 H          -1.1381    7.3967    8.0860 H       1  UNL1        0.0000
     64 H           0.1514    9.3540    7.2353 H       1  UNL1        0.0000
     65 H          -0.7468    9.2695    5.7075 H       1  UNL1        0.0000
     66 H          -1.9601    9.7279    8.4641 H       1  UNL1        0.0000
     67 H          -1.7084   10.9634    7.2277 H       1  UNL1        0.0000
     68 H          -4.0564   10.1424    7.2114 H       1  UNL1        0.0000
     69 H          -3.2382    9.7604    5.6934 H       1  UNL1        0.0000
     70 H          -4.4990    7.7872    6.4963 H       1  UNL1        0.0000
     71 H          -3.6370    7.8518    8.0375 H       1  UNL1        0.0000
     72 H          -2.6232    6.1504    6.5279 H       1  UNL1        0.0000
     73 H          -2.3769    7.3850    5.2965 H       1  UNL1        0.0000
     74 H          -1.8692    0.8706    8.3706 H       1  UNL1        0.0000
     75 H          -0.9732    1.0847    6.0872 H       1  UNL1        0.0000
     76 H          -2.6034    1.0688    5.4216 H       1  UNL1        0.0000
     77 H          -1.5922   -1.1852    5.2634 H       1  UNL1        0.0000
     78 H          -1.3154   -1.2021    7.0090 H       1  UNL1        0.0000
     79 H          -4.0316   -1.0365    5.6326 H       1  UNL1        0.0000
     80 H          -3.3792   -2.4525    6.4638 H       1  UNL1        0.0000
     81 H          -3.3192   -1.1965    8.5944 H       1  UNL1        0.0000
     82 H          -4.9528   -1.1938    7.9250 H       1  UNL1        0.0000
     83 H          -4.3378    1.0394    8.7407 H       1  UNL1        0.0000
     84 H          -4.5877    1.0667    6.9872 H       1  UNL1        0.0000
     85 H          -4.2792    3.1495    9.0665 H       1  UNL1        0.0000
     86 H          -2.5705    1.8627   10.3011 H       1  UNL1        0.0000
     87 H          -1.5362    3.2910   10.3949 H       1  UNL1        0.0000
     88 H          -4.3118    3.0124   11.6284 H       1  UNL1        0.0000
     89 H          -2.7762    2.9748   12.5006 H       1  UNL1        0.0000
     90 H          -2.2891    5.2914   11.7596 H       1  UNL1        0.0000
     91 H          -3.8187    5.2261   12.6440 H       1  UNL1        0.0000
     92 H          -5.0652    5.1574   10.4999 H       1  UNL1        0.0000
     93 H          -4.0399    6.5919   10.5742 H       1  UNL1        0.0000
     94 H          -3.8690    5.4603    8.3613 H       1  UNL1        0.0000
     95 H          -2.3161    5.4714    9.2073 H       1  UNL1        0.0000
@<TRIPOS>BOND
     1    43     7    1
     2     7     8   ar
     3     7     6   ar
     4    44     8    1
     5    42     6    1
     6     8     9   ar
     7     6     5   ar
     8    51    16    1
     9    50    16    1
    10    45    11    1
    11    46    12    1
    12    16    49    1
    13    16     3    1
    14     9     4   ar
    15     9     3    1
    16     5    41    1
    17     5     4   ar
    18    11    12   ar
    19    11    10   ar
    20    12    13   ar
    21     4     1    1
    22    54    18    1
    23     3    10    1
    24    10    15   ar
    25    13    47    1
    26    13    14   ar
    27    77    31    1
    28    73    28    1
    29    76    30    1
    30    79    32    1
    31    55    19    1
    32    69    26    1
    33    65    24    1
    34    56    19    1
    35    18    19    1
    36    18    53    1
    37    18    17    1
    38    75    30    1
    39    19    20    1
    40    15    14   ar
    41    15     2    1
    42    31    30    1
    43    31    32    1
    44    31    78    1
    45    30    29    1
    46    52    17    1
    47    14    48    1
    48    28    72    1
    49    28    27    1
    50    28    23    1
    51     1    17    1
    52     1    23    1
    53    32    80    1
    54    32    33    1
    55    70    27    1
    56    17    22    1
    57    26    27    1
    58    26    68    1
    59    26    25    1
    60    24    23    1
    61    24    64    1
    62    24    25    1
    63    27    71    1
    64    84    34    1
    65    23    63    1
    66    67    25    1
    67    25    66    1
    68    29     2    1
    69    29    34    1
    70    29    74    1
    71     2    35    1
    72    20    57    1
    73    20    58    1
    74    20    21    1
    75    33    34    1
    76    33    82    1
    77    33    81    1
    78    34    83    1
    79    59    21    1
    80    22    21    1
    81    22    61    1
    82    22    62    1
    83    94    40    1
    84    21    60    1
    85    85    35    1
    86    35    40    1
    87    35    36    1
    88    95    40    1
    89    40    39    1
    90    86    36    1
    91    36    87    1
    92    36    37    1
    93    92    39    1
    94    39    93    1
    95    39    38    1
    96    88    37    1
    97    37    38    1
    98    37    89    1
    99    38    90    1
   100    38    91    1
