@<TRIPOS>MOLECULE
1,2,3
 95 100 0 0 0
SMALL
GASTEIGER

@<TRIPOS>ATOM
      1 P           1.6367    1.7049    5.9801 P.3     1  UNL1        0.0000
      2 P           5.0150    1.9428    7.0020 P.3     1  UNL1        0.0000
      3 SI          2.6215    2.5630    8.7966 Si      1  UNL1        0.0000
      4 C           2.5634    2.7942   10.7121 C.3     1  UNL1        0.0000
      5 H           2.3822    3.8332   10.9599 H       1  UNL1        0.0000
      6 H           3.5003    2.5155   11.1771 H       1  UNL1        0.0000
      7 H           1.7766    2.1969   11.1493 H       1  UNL1        0.0000
      8 C           0.9267    3.2179    8.1719 C.ar    1  UNL1        0.0000
      9 C           0.4777    2.7582    6.9317 C.ar    1  UNL1        0.0000
     10 C          -0.7918    3.1068    6.4811 C.ar    1  UNL1        0.0000
     11 H          -1.1753    2.7314    5.5441 H       1  UNL1        0.0000
     12 C          -1.6054    3.9271    7.2433 C.ar    1  UNL1        0.0000
     13 H          -2.5915    4.1878    6.8856 H       1  UNL1        0.0000
     14 C          -1.1579    4.4024    8.4633 C.ar    1  UNL1        0.0000
     15 H          -1.7920    5.0421    9.0605 H       1  UNL1        0.0000
     16 C           0.0963    4.0380    8.9206 C.ar    1  UNL1        0.0000
     17 H           0.4289    4.3859    9.8859 H       1  UNL1        0.0000
     18 C           3.8264    4.0061    8.3351 C.ar    1  UNL1        0.0000
     19 C           4.9299    3.6879    7.5398 C.ar    1  UNL1        0.0000
     20 C           5.8530    4.6666    7.1922 C.ar    1  UNL1        0.0000
     21 H           6.7066    4.4315    6.5753 H       1  UNL1        0.0000
     22 C           5.6791    5.9690    7.6279 C.ar    1  UNL1        0.0000
     23 H           6.3992    6.7275    7.3550 H       1  UNL1        0.0000
     24 C           4.5817    6.2975    8.4046 C.ar    1  UNL1        0.0000
     25 H           4.4402    7.3168    8.7346 H       1  UNL1        0.0000
     26 C           3.6677    5.3179    8.7543 C.ar    1  UNL1        0.0000
     27 H           2.8090    5.5802    9.3537 H       1  UNL1        0.0000
     28 C           0.4625    0.4931    5.1811 C.3     1  UNL1        0.0000
     29 H          -0.3507    1.0544    4.7079 H       1  UNL1        0.0000
     30 C           1.1609   -0.3483    4.1164 C.3     1  UNL1        0.0000
     31 H           1.9911   -0.8864    4.5758 H       1  UNL1        0.0000
     32 H           1.5675    0.2907    3.3281 H       1  UNL1        0.0000
     33 C           0.1825   -1.3528    3.5128 C.3     1  UNL1        0.0000
     34 H          -0.6323   -0.8160    3.0192 H       1  UNL1        0.0000
     35 H           0.6895   -1.9558    2.7558 H       1  UNL1        0.0000
     36 C          -0.3890   -2.2551    4.6016 C.3     1  UNL1        0.0000
     37 H           0.4231   -2.8264    5.0539 H       1  UNL1        0.0000
     38 H          -1.0963   -2.9642    4.1653 H       1  UNL1        0.0000
     39 C          -1.0821   -1.4228    5.6770 C.3     1  UNL1        0.0000
     40 H          -1.4607   -2.0755    6.4666 H       1  UNL1        0.0000
     41 H          -1.9394   -0.9067    5.2354 H       1  UNL1        0.0000
     42 C          -0.1240   -0.3956    6.2726 C.3     1  UNL1        0.0000
     43 H          -0.6483    0.2241    7.0050 H       1  UNL1        0.0000
     44 H           0.6927   -0.9010    6.7987 H       1  UNL1        0.0000
     45 C           2.0311    2.8432    4.5252 C.3     1  UNL1        0.0000
     46 H           2.7877    2.3029    3.9398 H       1  UNL1        0.0000
     47 C           2.6741    4.1070    5.0861 C.3     1  UNL1        0.0000
     48 H           1.9323    4.6670    5.6612 H       1  UNL1        0.0000
     49 H           3.4720    3.8209    5.7744 H       1  UNL1        0.0000
     50 C           3.2249    4.9861    3.9691 C.3     1  UNL1        0.0000
     51 H           3.6758    5.8842    4.3959 H       1  UNL1        0.0000
     52 H           4.0048    4.4439    3.4279 H       1  UNL1        0.0000
     53 C           2.1095    5.3630    2.9996 C.3     1  UNL1        0.0000
     54 H           1.3658    5.9664    3.5245 H       1  UNL1        0.0000
     55 H           2.5092    5.9617    2.1783 H       1  UNL1        0.0000
     56 C           1.4437    4.1053    2.4514 C.3     1  UNL1        0.0000
     57 H           2.1736    3.5290    1.8769 H       1  UNL1        0.0000
     58 H           0.6304    4.3800    1.7757 H       1  UNL1        0.0000
     59 C           0.8929    3.2405    3.5865 C.3     1  UNL1        0.0000
     60 H           0.4071    2.3647    3.1546 H       1  UNL1        0.0000
     61 H           0.1507    3.8187    4.1377 H       1  UNL1        0.0000
     62 C           5.9021    2.0649    5.3392 C.3     1  UNL1        0.0000
     63 H           5.5382    3.0180    4.9284 H       1  UNL1        0.0000
     64 C           5.4130    0.9457    4.4182 C.3     1  UNL1        0.0000
     65 H           5.8145   -0.0123    4.7568 H       1  UNL1        0.0000
     66 H           4.3201    0.8870    4.4625 H       1  UNL1        0.0000
     67 C           5.8717    1.1984    2.9859 C.3     1  UNL1        0.0000
     68 H           5.5159    0.3988    2.3322 H       1  UNL1        0.0000
     69 H           5.4445    2.1387    2.6277 H       1  UNL1        0.0000
     70 C           7.3945    1.2791    2.9282 C.3     1  UNL1        0.0000
     71 H           7.7199    1.5027    1.9101 H       1  UNL1        0.0000
     72 H           7.8175    0.3111    3.2078 H       1  UNL1        0.0000
     73 C           7.9097    2.3497    3.8855 C.3     1  UNL1        0.0000
     74 H           7.5491    3.3295    3.5625 H       1  UNL1        0.0000
     75 H           9.0017    2.3718    3.8628 H       1  UNL1        0.0000
     76 C           7.4313    2.0797    5.3128 C.3     1  UNL1        0.0000
     77 H           7.8386    2.8436    5.9765 H       1  UNL1        0.0000
     78 H           7.8222    1.1143    5.6391 H       1  UNL1        0.0000
     79 C           6.3492    1.3455    8.1714 C.3     1  UNL1        0.0000
     80 H           7.2791    1.8935    7.9794 H       1  UNL1        0.0000
     81 C           6.5438   -0.1546    7.9814 C.3     1  UNL1        0.0000
     82 H           5.5716   -0.6352    8.1613 H       1  UNL1        0.0000
     83 H           6.8540   -0.3819    6.9580 H       1  UNL1        0.0000
     84 C           7.5695   -0.7080    8.9657 C.3     1  UNL1        0.0000
     85 H           7.6851   -1.7842    8.8147 H       1  UNL1        0.0000
     86 H           8.5401   -0.2399    8.7790 H       1  UNL1        0.0000
     87 C           7.1386   -0.4259   10.4018 C.3     1  UNL1        0.0000
     88 H           6.2048   -0.9523   10.6131 H       1  UNL1        0.0000
     89 H           7.8956   -0.7937   11.0979 H       1  UNL1        0.0000
     90 C           6.9191    1.0695   10.6034 C.3     1  UNL1        0.0000
     91 H           7.8648    1.6008   10.4668 H       1  UNL1        0.0000
     92 H           6.5739    1.2607   11.6216 H       1  UNL1        0.0000
     93 C           5.8926    1.5957    9.6051 C.3     1  UNL1        0.0000
     94 H           5.7251    2.6625    9.7686 H       1  UNL1        0.0000
     95 H           4.9361    1.0733    9.7502 H       1  UNL1        0.0000
@<TRIPOS>BOND
     1    58    56    1
     2    57    56    1
     3    71    70    1
     4    55    53    1
     5    68    67    1
     6    56    53    1
     7    56    59    1
     8    69    67    1
     9    35    33    1
    10    70    67    1
    11    70    72    1
    12    70    73    1
    13    67    64    1
    14    53    54    1
    15    53    50    1
    16    34    33    1
    17    60    59    1
    18    32    30    1
    19    52    50    1
    20    33    30    1
    21    33    36    1
    22    74    73    1
    23    59    61    1
    24    59    45    1
    25    75    73    1
    26    73    76    1
    27    46    45    1
    28    50    51    1
    29    50    47    1
    30    30    31    1
    31    30    28    1
    32    38    36    1
    33    64    66    1
    34    64    65    1
    35    64    62    1
    36    45    47    1
    37    45     1    1
    38    36    37    1
    39    36    39    1
    40    29    28    1
    41    63    62    1
    42    47    48    1
    43    47    49    1
    44    28     1    1
    45    28    42    1
    46    41    39    1
    47    76    62    1
    48    76    78    1
    49    76    77    1
    50    62     2    1
    51    11    10    1
    52    39    42    1
    53    39    40    1
    54     1     9    1
    55    42    44    1
    56    42    43    1
    57    10     9   ar
    58    10    12   ar
    59    21    20    1
    60    13    12    1
    61     9     8   ar
    62    83    81    1
    63     2    19    1
    64     2    79    1
    65    20    19   ar
    66    20    22   ar
    67    12    14   ar
    68    23    22    1
    69    19    18   ar
    70    22    24   ar
    71    80    79    1
    72    81    82    1
    73    81    79    1
    74    81    84    1
    75    79    93    1
    76     8     3    1
    77     8    16   ar
    78    18    26   ar
    79    18     3    1
    80    24    25    1
    81    24    26   ar
    82    14    16   ar
    83    14    15    1
    84    26    27    1
    85    86    84    1
    86     3     4    1
    87    85    84    1
    88    16    17    1
    89    84    87    1
    90    93    95    1
    91    93    94    1
    92    93    90    1
    93    87    90    1
    94    87    88    1
    95    87    89    1
    96    91    90    1
    97    90    92    1
    98     4     5    1
    99     4     7    1
   100     4     6    1
