@<TRIPOS>MOLECULE
1,2,3
 95 100 0 0 0
SMALL
GASTEIGER

@<TRIPOS>ATOM
      1 P          -0.6283    4.1707    1.9949 P.3     1  UNL1        0.0000
      2 P          -0.7275    2.0345    4.7788 P.3     1  UNL1        0.0000
      3 SI          0.7908    4.6924    4.7126 Si      1  UNL1        0.0000
      4 C           2.2516    5.3298    5.8010 C.3     1  UNL1        0.0000
      5 H           2.7317    4.5247    6.3440 H       1  UNL1        0.0000
      6 H           1.8998    6.0473    6.5318 H       1  UNL1        0.0000
      7 H           2.9985    5.8165    5.1847 H       1  UNL1        0.0000
      8 C           0.2846    6.1946    3.6343 C.ar    1  UNL1        0.0000
      9 C          -0.3023    5.9315    2.3946 C.ar    1  UNL1        0.0000
     10 C          -0.6006    6.9845    1.5351 C.ar    1  UNL1        0.0000
     11 H          -1.0172    6.8060    0.5550 H       1  UNL1        0.0000
     12 C          -0.3437    8.2912    1.9119 C.ar    1  UNL1        0.0000
     13 H          -0.5768    9.1009    1.2345 H       1  UNL1        0.0000
     14 C           0.2177    8.5576    3.1485 C.ar    1  UNL1        0.0000
     15 H           0.4179    9.5781    3.4437 H       1  UNL1        0.0000
     16 C           0.5358    7.5094    3.9937 C.ar    1  UNL1        0.0000
     17 H           0.9982    7.7160    4.9469 H       1  UNL1        0.0000
     18 C          -0.6942    4.5228    5.9233 C.ar    1  UNL1        0.0000
     19 C          -1.3865    3.3090    5.9127 C.ar    1  UNL1        0.0000
     20 C          -2.4915    3.1272    6.7352 C.ar    1  UNL1        0.0000
     21 H          -3.0396    2.1975    6.7299 H       1  UNL1        0.0000
     22 C          -2.9138    4.1505    7.5667 C.ar    1  UNL1        0.0000
     23 H          -3.7759    4.0053    8.2025 H       1  UNL1        0.0000
     24 C          -2.2343    5.3561    7.5817 C.ar    1  UNL1        0.0000
     25 H          -2.5674    6.1556    8.2284 H       1  UNL1        0.0000
     26 C          -1.1321    5.5344    6.7626 C.ar    1  UNL1        0.0000
     27 H          -0.6083    6.4790    6.7698 H       1  UNL1        0.0000
     28 C          -0.1103    4.1352    0.1965 C.3     1  UNL1        0.0000
     29 H          -0.5588    4.9939   -0.3157 H       1  UNL1        0.0000
     30 C           1.4101    4.2910    0.1568 C.3     1  UNL1        0.0000
     31 H           1.6845    5.2446    0.6201 H       1  UNL1        0.0000
     32 H           1.8831    3.4927    0.7453 H       1  UNL1        0.0000
     33 C           1.9362    4.2277   -1.2727 C.3     1  UNL1        0.0000
     34 H           1.5440    5.0736   -1.8438 H       1  UNL1        0.0000
     35 H           3.0256    4.3031   -1.2687 H       1  UNL1        0.0000
     36 C           1.5049    2.9245   -1.9381 C.3     1  UNL1        0.0000
     37 H           1.8825    2.8842   -2.9619 H       1  UNL1        0.0000
     38 H           1.9328    2.0809   -1.3906 H       1  UNL1        0.0000
     39 C          -0.0168    2.8153   -1.9402 C.3     1  UNL1        0.0000
     40 H          -0.3260    1.8848   -2.4224 H       1  UNL1        0.0000
     41 H          -0.4365    3.6441   -2.5164 H       1  UNL1        0.0000
     42 C          -0.5610    2.8600   -0.5140 C.3     1  UNL1        0.0000
     43 H          -0.2025    1.9833    0.0276 H       1  UNL1        0.0000
     44 H          -1.6525    2.8084   -0.5352 H       1  UNL1        0.0000
     45 C          -2.5076    4.1756    1.8555 C.3     1  UNL1        0.0000
     46 H          -2.7662    3.1204    1.6806 H       1  UNL1        0.0000
     47 C          -3.1891    5.0194    0.7808 C.3     1  UNL1        0.0000
     48 H          -3.0062    6.0768    0.9736 H       1  UNL1        0.0000
     49 H          -2.8176    4.7759   -0.2160 H       1  UNL1        0.0000
     50 C          -4.6976    4.7721    0.8278 C.3     1  UNL1        0.0000
     51 H          -5.1893    5.3610    0.0499 H       1  UNL1        0.0000
     52 H          -4.9008    3.7171    0.6251 H       1  UNL1        0.0000
     53 C          -5.2635    5.1451    2.1947 C.3     1  UNL1        0.0000
     54 H          -6.3377    4.9486    2.2197 H       1  UNL1        0.0000
     55 H          -5.1140    6.2133    2.3675 H       1  UNL1        0.0000
     56 C          -4.5593    4.3560    3.2945 C.3     1  UNL1        0.0000
     57 H          -4.9316    4.6601    4.2751 H       1  UNL1        0.0000
     58 H          -4.7755    3.2915    3.1694 H       1  UNL1        0.0000
     59 C          -3.0538    4.5815    3.2212 C.3     1  UNL1        0.0000
     60 H          -2.5409    4.0061    3.9973 H       1  UNL1        0.0000
     61 H          -2.8309    5.6369    3.4006 H       1  UNL1        0.0000
     62 C          -2.2517    1.0049    4.3456 C.3     1  UNL1        0.0000
     63 H          -3.0565    1.7534    4.3031 H       1  UNL1        0.0000
     64 C          -2.0704    0.4393    2.9353 C.3     1  UNL1        0.0000
     65 H          -1.6988    1.2291    2.2714 H       1  UNL1        0.0000
     66 H          -1.3278   -0.3628    2.9537 H       1  UNL1        0.0000
     67 C          -3.3890   -0.1194    2.4125 C.3     1  UNL1        0.0000
     68 H          -4.1290    0.6835    2.3611 H       1  UNL1        0.0000
     69 H          -3.2558   -0.5163    1.4034 H       1  UNL1        0.0000
     70 C          -3.8965   -1.2186    3.3417 C.3     1  UNL1        0.0000
     71 H          -3.1945   -2.0560    3.3264 H       1  UNL1        0.0000
     72 H          -4.8629   -1.5882    2.9922 H       1  UNL1        0.0000
     73 C          -4.0258   -0.6956    4.7694 C.3     1  UNL1        0.0000
     74 H          -4.3524   -1.5021    5.4300 H       1  UNL1        0.0000
     75 H          -4.7855    0.0896    4.8007 H       1  UNL1        0.0000
     76 C          -2.6946   -0.1310    5.2681 C.3     1  UNL1        0.0000
     77 H          -1.9493   -0.9288    5.2670 H       1  UNL1        0.0000
     78 H          -2.8151    0.2085    6.2978 H       1  UNL1        0.0000
     79 C           0.1448    0.9793    6.0652 C.3     1  UNL1        0.0000
     80 H          -0.6135    0.5790    6.7486 H       1  UNL1        0.0000
     81 C           1.1318    1.8329    6.8552 C.3     1  UNL1        0.0000
     82 H           1.8508    2.2650    6.1514 H       1  UNL1        0.0000
     83 H           0.6123    2.6559    7.3496 H       1  UNL1        0.0000
     84 C           1.8691    0.9905    7.8930 C.3     1  UNL1        0.0000
     85 H           2.5750    1.6191    8.4401 H       1  UNL1        0.0000
     86 H           1.1498    0.5934    8.6140 H       1  UNL1        0.0000
     87 C           2.6083   -0.1656    7.2269 C.3     1  UNL1        0.0000
     88 H           3.3743    0.2320    6.5568 H       1  UNL1        0.0000
     89 H           3.1076   -0.7772    7.9813 H       1  UNL1        0.0000
     90 C           1.6329   -1.0177    6.4226 C.3     1  UNL1        0.0000
     91 H           0.9006   -1.4704    7.0964 H       1  UNL1        0.0000
     92 H           2.1693   -1.8255    5.9188 H       1  UNL1        0.0000
     93 C           0.9121   -0.1543    5.3923 C.3     1  UNL1        0.0000
     94 H           1.6594    0.2962    4.7273 H       1  UNL1        0.0000
     95 H           0.2405   -0.7765    4.7941 H       1  UNL1        0.0000
@<TRIPOS>BOND
     1    37    36    1
     2    41    39    1
     3    40    39    1
     4    39    36    1
     5    39    42    1
     6    36    38    1
     7    36    33    1
     8    34    33    1
     9    33    35    1
    10    33    30    1
    11    44    42    1
    12    42    43    1
    13    42    28    1
    14    29    28    1
    15    49    47    1
    16    51    50    1
    17    30    28    1
    18    30    31    1
    19    30    32    1
    20    28     1    1
    21    11    10    1
    22    52    50    1
    23    47    50    1
    24    47    48    1
    25    47    45    1
    26    50    53    1
    27    13    12    1
    28    69    67    1
    29    10    12   ar
    30    10     9   ar
    31    46    45    1
    32    45     1    1
    33    45    59    1
    34    12    14   ar
    35     1     9    1
    36    53    54    1
    37    53    55    1
    38    53    56    1
    39    65    64    1
    40    68    67    1
    41     9     8   ar
    42    67    64    1
    43    67    70    1
    44    64    66    1
    45    64    62    1
    46    72    70    1
    47    14    15    1
    48    14    16   ar
    49    58    56    1
    50    59    56    1
    51    59    61    1
    52    59    60    1
    53    56    57    1
    54    71    70    1
    55    70    73    1
    56     8    16   ar
    57     8     3    1
    58    16    17    1
    59    63    62    1
    60    62     2    1
    61    62    76    1
    62     3     4    1
    63     3    18    1
    64    94    93    1
    65    73    75    1
    66    73    76    1
    67    73    74    1
    68     2    19    1
    69     2    79    1
    70    95    93    1
    71     7     4    1
    72    77    76    1
    73    76    78    1
    74    93    79    1
    75    93    90    1
    76     4     5    1
    77     4     6    1
    78    19    18   ar
    79    19    20   ar
    80    92    90    1
    81    18    26   ar
    82    79    80    1
    83    79    81    1
    84    82    81    1
    85    90    91    1
    86    90    87    1
    87    88    87    1
    88    21    20    1
    89    20    22   ar
    90    26    27    1
    91    26    24   ar
    92    81    83    1
    93    81    84    1
    94    87    84    1
    95    87    89    1
    96    22    24   ar
    97    22    23    1
    98    24    25    1
    99    84    85    1
   100    84    86    1
