@<TRIPOS>MOLECULE
1,2,3
 95 100 0 0 0
SMALL
GASTEIGER

@<TRIPOS>ATOM
      1 P           0.5771    1.9280    3.3055 P.3     1  UNL1        0.0000
      2 P           3.2083    2.0675    5.4492 P.3     1  UNL1        0.0000
      3 SI          3.3851    2.4602    2.3947 Si      1  UNL1        0.0000
      4 C           4.9941    2.4105    1.3379 C.3     1  UNL1        0.0000
      5 H           4.8361    1.8428    0.4295 H       1  UNL1        0.0000
      6 H           5.8201    1.9622    1.8749 H       1  UNL1        0.0000
      7 H           5.2925    3.4135    1.0608 H       1  UNL1        0.0000
      8 C           1.9784    2.8908    1.1658 C.ar    1  UNL1        0.0000
      9 C           0.6832    2.6226    1.6133 C.ar    1  UNL1        0.0000
     10 C          -0.4108    2.9743    0.8312 C.ar    1  UNL1        0.0000
     11 H          -1.4203    2.8348    1.1921 H       1  UNL1        0.0000
     12 C          -0.2158    3.5237   -0.4250 C.ar    1  UNL1        0.0000
     13 H          -1.0688    3.7791   -1.0377 H       1  UNL1        0.0000
     14 C           1.0676    3.7510   -0.8917 C.ar    1  UNL1        0.0000
     15 H           1.2169    4.1754   -1.8742 H       1  UNL1        0.0000
     16 C           2.1550    3.4505   -0.0889 C.ar    1  UNL1        0.0000
     17 H           3.1550    3.6535   -0.4410 H       1  UNL1        0.0000
     18 C           3.5920    3.9982    3.5387 C.ar    1  UNL1        0.0000
     19 C           3.4684    3.8048    4.9195 C.ar    1  UNL1        0.0000
     20 C           3.6631    4.8746    5.7874 C.ar    1  UNL1        0.0000
     21 H           3.5978    4.7374    6.8549 H       1  UNL1        0.0000
     22 C           3.9471    6.1355    5.2898 C.ar    1  UNL1        0.0000
     23 H           4.0907    6.9609    5.9727 H       1  UNL1        0.0000
     24 C           4.0525    6.3363    3.9243 C.ar    1  UNL1        0.0000
     25 H           4.2725    7.3207    3.5372 H       1  UNL1        0.0000
     26 C           3.8831    5.2677    3.0611 C.ar    1  UNL1        0.0000
     27 H           3.9719    5.4204    1.9950 H       1  UNL1        0.0000
     28 C          -1.0713    1.0311    3.2671 C.3     1  UNL1        0.0000
     29 H          -1.8615    1.7888    3.2038 H       1  UNL1        0.0000
     30 C          -1.1904    0.0998    2.0590 C.3     1  UNL1        0.0000
     31 H          -1.0561    0.6512    1.1277 H       1  UNL1        0.0000
     32 H          -0.4065   -0.6546    2.1002 H       1  UNL1        0.0000
     33 C          -2.5523   -0.5914    2.0547 C.3     1  UNL1        0.0000
     34 H          -3.3415    0.1603    1.9701 H       1  UNL1        0.0000
     35 H          -2.6265   -1.2499    1.1863 H       1  UNL1        0.0000
     36 C          -2.7557   -1.3933    3.3361 C.3     1  UNL1        0.0000
     37 H          -2.0118   -2.1920    3.3878 H       1  UNL1        0.0000
     38 H          -3.7424   -1.8612    3.3321 H       1  UNL1        0.0000
     39 C          -2.6137   -0.4866    4.5540 C.3     1  UNL1        0.0000
     40 H          -2.7212   -1.0727    5.4696 H       1  UNL1        0.0000
     41 H          -3.4106    0.2617    4.5420 H       1  UNL1        0.0000
     42 C          -1.2600    0.2187    4.5502 C.3     1  UNL1        0.0000
     43 H          -0.4602   -0.5192    4.6289 H       1  UNL1        0.0000
     44 H          -1.1852    0.8597    5.4301 H       1  UNL1        0.0000
     45 C           0.1986    3.5554    4.2398 C.3     1  UNL1        0.0000
     46 H           1.0186    3.6054    4.9696 H       1  UNL1        0.0000
     47 C          -1.1272    3.6252    5.0010 C.3     1  UNL1        0.0000
     48 H          -1.2440    2.7679    5.6632 H       1  UNL1        0.0000
     49 H          -1.9619    3.6310    4.2972 H       1  UNL1        0.0000
     50 C          -1.2036    4.8968    5.8466 C.3     1  UNL1        0.0000
     51 H          -2.1599    4.9206    6.3749 H       1  UNL1        0.0000
     52 H          -0.4100    4.8847    6.5956 H       1  UNL1        0.0000
     53 C          -1.0534    6.1394    4.9792 C.3     1  UNL1        0.0000
     54 H          -1.8881    6.1990    4.2767 H       1  UNL1        0.0000
     55 H          -1.0765    7.0354    5.6028 H       1  UNL1        0.0000
     56 C           0.2570    6.0674    4.2056 C.3     1  UNL1        0.0000
     57 H           1.0980    6.0690    4.9022 H       1  UNL1        0.0000
     58 H           0.3602    6.9403    3.5579 H       1  UNL1        0.0000
     59 C           0.3094    4.8005    3.3553 C.3     1  UNL1        0.0000
     60 H           1.2458    4.7863    2.7990 H       1  UNL1        0.0000
     61 H          -0.5120    4.8215    2.6365 H       1  UNL1        0.0000
     62 C           1.9836    1.9564    6.8723 C.3     1  UNL1        0.0000
     63 H           1.0418    1.8000    6.3174 H       1  UNL1        0.0000
     64 C           2.2494    0.6736    7.6630 C.3     1  UNL1        0.0000
     65 H           2.4371   -0.1558    6.9803 H       1  UNL1        0.0000
     66 H           3.1352    0.7846    8.2889 H       1  UNL1        0.0000
     67 C           1.0538    0.3607    8.5573 C.3     1  UNL1        0.0000
     68 H           0.1660    0.1947    7.9415 H       1  UNL1        0.0000
     69 H           1.2454   -0.5534    9.1225 H       1  UNL1        0.0000
     70 C           0.7994    1.5211    9.5152 C.3     1  UNL1        0.0000
     71 H          -0.0701    1.3086   10.1410 H       1  UNL1        0.0000
     72 H           1.6626    1.6406   10.1742 H       1  UNL1        0.0000
     73 C           0.5727    2.8146    8.7385 C.3     1  UNL1        0.0000
     74 H           0.4180    3.6438    9.4331 H       1  UNL1        0.0000
     75 H          -0.3308    2.7171    8.1315 H       1  UNL1        0.0000
     76 C           1.7621    3.1261    7.8280 C.3     1  UNL1        0.0000
     77 H           2.6453    3.2922    8.4466 H       1  UNL1        0.0000
     78 H           1.5550    4.0410    7.2699 H       1  UNL1        0.0000
     79 C           4.8869    1.6987    6.1692 C.3     1  UNL1        0.0000
     80 H           4.8649    0.6170    6.3689 H       1  UNL1        0.0000
     81 C           5.9487    1.9822    5.1055 C.3     1  UNL1        0.0000
     82 H           5.6458    1.5504    4.1504 H       1  UNL1        0.0000
     83 H           6.0414    3.0623    4.9596 H       1  UNL1        0.0000
     84 C           7.2903    1.4108    5.5524 C.3     1  UNL1        0.0000
     85 H           7.1943    0.3316    5.6893 H       1  UNL1        0.0000
     86 H           8.0485    1.5909    4.7866 H       1  UNL1        0.0000
     87 C           7.7174    2.0516    6.8695 C.3     1  UNL1        0.0000
     88 H           8.6566    1.6128    7.2128 H       1  UNL1        0.0000
     89 H           7.8844    3.1206    6.7131 H       1  UNL1        0.0000
     90 C           6.6368    1.8580    7.9286 C.3     1  UNL1        0.0000
     91 H           6.9340    2.3524    8.8569 H       1  UNL1        0.0000
     92 H           6.5204    0.7922    8.1363 H       1  UNL1        0.0000
     93 C           5.2994    2.4235    7.4498 C.3     1  UNL1        0.0000
     94 H           5.4162    3.4906    7.2493 H       1  UNL1        0.0000
     95 H           4.5592    2.3004    8.2398 H       1  UNL1        0.0000
@<TRIPOS>BOND
     1    15    14    1
     2    13    12    1
     3    14    12   ar
     4    14    16   ar
     5    17    16    1
     6    12    10   ar
     7    16     8   ar
     8     5     4    1
     9    10    11    1
    10    10     9   ar
    11     7     4    1
    12    31    30    1
    13     8     9   ar
    14     8     3    1
    15    35    33    1
    16     4     6    1
    17     4     3    1
    18     9     1    1
    19    34    33    1
    20    27    26    1
    21    33    30    1
    22    33    36    1
    23    30    32    1
    24    30    28    1
    25     3    18    1
    26    61    59    1
    27    60    59    1
    28    26    18   ar
    29    26    24   ar
    30    29    28    1
    31    28     1    1
    32    28    42    1
    33     1    45    1
    34    38    36    1
    35    36    37    1
    36    36    39    1
    37    59    56    1
    38    59    45    1
    39    25    24    1
    40    18    19   ar
    41    58    56    1
    42    24    22   ar
    43    82    81    1
    44    56    57    1
    45    56    53    1
    46    45    46    1
    47    45    47    1
    48    54    53    1
    49    49    47    1
    50    41    39    1
    51    42    39    1
    52    42    43    1
    53    42    44    1
    54    39    40    1
    55    86    84    1
    56    19     2    1
    57    19    20   ar
    58    83    81    1
    59    53    55    1
    60    53    50    1
    61    47    48    1
    62    47    50    1
    63    81    84    1
    64    81    79    1
    65    22    20   ar
    66    22    23    1
    67     2    79    1
    68     2    62    1
    69    84    85    1
    70    84    87    1
    71    20    21    1
    72    50    51    1
    73    50    52    1
    74    79    80    1
    75    79    93    1
    76    63    62    1
    77    89    87    1
    78    87    88    1
    79    87    90    1
    80    62    64    1
    81    62    76    1
    82    65    64    1
    83    94    93    1
    84    78    76    1
    85    93    90    1
    86    93    95    1
    87    64    66    1
    88    64    67    1
    89    76    77    1
    90    76    73    1
    91    90    92    1
    92    90    91    1
    93    68    67    1
    94    75    73    1
    95    67    69    1
    96    67    70    1
    97    73    74    1
    98    73    70    1
    99    70    71    1
   100    70    72    1
