@<TRIPOS>MOLECULE
1,2,3
 95 100 0 0 0
SMALL
GASTEIGER

@<TRIPOS>ATOM
      1 P           4.3470   12.4733   21.5357 P.3     1  UNL1        0.0000
      2 P           4.3834    8.6709   19.7002 P.3     1  UNL1        0.0000
      3 SI          4.3168    9.6730   22.4745 Si      1  UNL1        0.0000
      4 C           3.3139    8.9586   23.9677 C.3     1  UNL1        0.0000
      5 C           5.5365   10.8754   23.3467 C.ar    1  UNL1        0.0000
      6 C           6.3421   10.5861   24.4364 C.ar    1  UNL1        0.0000
      7 C           7.2905   11.4879   24.8855 C.ar    1  UNL1        0.0000
      8 C           7.4476   12.7013   24.2379 C.ar    1  UNL1        0.0000
      9 C           6.6156   13.0341   23.1835 C.ar    1  UNL1        0.0000
     10 C           5.6533   12.1295   22.7479 C.ar    1  UNL1        0.0000
     11 C           3.2029   13.4761   22.6338 C.3     1  UNL1        0.0000
     12 C           2.5703   12.5116   23.6289 C.3     1  UNL1        0.0000
     13 C           1.5055   13.1996   24.4753 C.3     1  UNL1        0.0000
     14 C           2.1161   14.3844   25.2161 C.3     1  UNL1        0.0000
     15 C           2.7509   15.3525   24.2237 C.3     1  UNL1        0.0000
     16 C           3.8211   14.6532   23.3851 C.3     1  UNL1        0.0000
     17 C           5.0863   13.8318   20.5027 C.3     1  UNL1        0.0000
     18 C           4.0795   14.5942   19.6410 C.3     1  UNL1        0.0000
     19 C           4.7906   15.7307   18.9084 C.3     1  UNL1        0.0000
     20 C           5.9238   15.1850   18.0447 C.3     1  UNL1        0.0000
     21 C           6.9217   14.4098   18.9002 C.3     1  UNL1        0.0000
     22 C           6.2119   13.2780   19.6356 C.3     1  UNL1        0.0000
     23 C           5.5408    8.2419   22.0900 C.ar    1  UNL1        0.0000
     24 C           6.3273    7.5580   23.0031 C.ar    1  UNL1        0.0000
     25 C           7.2806    6.6460   22.5862 C.ar    1  UNL1        0.0000
     26 C           7.4642    6.4112   21.2343 C.ar    1  UNL1        0.0000
     27 C           6.6512    7.0399   20.3078 C.ar    1  UNL1        0.0000
     28 C           5.6822    7.9410   20.7357 C.ar    1  UNL1        0.0000
     29 C           5.1337    8.6427   18.0000 C.3     1  UNL1        0.0000
     30 C           6.2468    9.6806   17.9049 C.3     1  UNL1        0.0000
     31 C           6.9597    9.5750   16.5611 C.3     1  UNL1        0.0000
     32 C           5.9601    9.7617   15.4233 C.3     1  UNL1        0.0000
     33 C           4.8415    8.7288   15.5208 C.3     1  UNL1        0.0000
     34 C           4.1264    8.8365   16.8665 C.3     1  UNL1        0.0000
     35 C           3.2523    7.1797   19.5942 C.3     1  UNL1        0.0000
     36 C           3.8702    5.8642   19.1267 C.3     1  UNL1        0.0000
     37 C           2.7964    4.7763   19.0895 C.3     1  UNL1        0.0000
     38 C           2.1555    4.5915   20.4609 C.3     1  UNL1        0.0000
     39 C           1.5524    5.9070   20.9428 C.3     1  UNL1        0.0000
     40 C           2.6263    6.9882   20.9691 C.3     1  UNL1        0.0000
     41 H           4.0025    8.5305   24.6842 H       1  UNL1        0.0000
     42 H           2.7482    9.7257   24.4810 H       1  UNL1        0.0000
     43 H           2.6296    8.1760   23.6662 H       1  UNL1        0.0000
     44 H           6.2271    9.6447   24.9493 H       1  UNL1        0.0000
     45 H           7.9168   11.2423   25.7317 H       1  UNL1        0.0000
     46 H           8.2065   13.3987   24.5643 H       1  UNL1        0.0000
     47 H           6.7432   13.9955   22.7071 H       1  UNL1        0.0000
     48 H           2.4238   13.8661   21.9663 H       1  UNL1        0.0000
     49 H           2.1410   11.6707   23.0783 H       1  UNL1        0.0000
     50 H           3.3520   12.1125   24.2810 H       1  UNL1        0.0000
     51 H           0.6927   13.5533   23.8343 H       1  UNL1        0.0000
     52 H           1.0815   12.4889   25.1885 H       1  UNL1        0.0000
     53 H           1.3502   14.8979   25.8013 H       1  UNL1        0.0000
     54 H           2.8809   14.0213   25.9064 H       1  UNL1        0.0000
     55 H           1.9769   15.7550   23.5643 H       1  UNL1        0.0000
     56 H           3.2008   16.1915   24.7590 H       1  UNL1        0.0000
     57 H           4.6137   14.2937   24.0445 H       1  UNL1        0.0000
     58 H           4.2504   15.3786   22.6922 H       1  UNL1        0.0000
     59 H           5.5231   14.5464   21.2135 H       1  UNL1        0.0000
     60 H           3.6329   13.9250   18.9041 H       1  UNL1        0.0000
     61 H           3.2778   15.0062   20.2593 H       1  UNL1        0.0000
     62 H           4.0743   16.2706   18.2850 H       1  UNL1        0.0000
     63 H           5.1972   16.4372   19.6379 H       1  UNL1        0.0000
     64 H           5.5064   14.5180   17.2873 H       1  UNL1        0.0000
     65 H           6.4287   16.0058   17.5302 H       1  UNL1        0.0000
     66 H           7.7148   14.0005   18.2707 H       1  UNL1        0.0000
     67 H           7.3853   15.0855   19.6243 H       1  UNL1        0.0000
     68 H           6.9165   12.7168   20.2567 H       1  UNL1        0.0000
     69 H           5.7934   12.5855   18.9052 H       1  UNL1        0.0000
     70 H           6.1923    7.7306   24.0591 H       1  UNL1        0.0000
     71 H           7.8899    6.1260   23.3122 H       1  UNL1        0.0000
     72 H           8.2276    5.7226   20.8998 H       1  UNL1        0.0000
     73 H           6.7972    6.8247   19.2590 H       1  UNL1        0.0000
     74 H           5.5827    7.6472   17.8818 H       1  UNL1        0.0000
     75 H           5.8155   10.6769   18.0025 H       1  UNL1        0.0000
     76 H           6.9518    9.5440   18.7305 H       1  UNL1        0.0000
     77 H           7.7434   10.3330   16.4985 H       1  UNL1        0.0000
     78 H           7.4356    8.5944   16.4729 H       1  UNL1        0.0000
     79 H           5.5285   10.7631   15.4860 H       1  UNL1        0.0000
     80 H           6.4672    9.6723   14.4599 H       1  UNL1        0.0000
     81 H           4.1243    8.8794   14.7107 H       1  UNL1        0.0000
     82 H           5.2632    7.7254   15.4110 H       1  UNL1        0.0000
     83 H           3.3376    8.0818   16.9201 H       1  UNL1        0.0000
     84 H           3.6605    9.8197   16.9426 H       1  UNL1        0.0000
     85 H           2.4676    7.4613   18.8791 H       1  UNL1        0.0000
     86 H           4.3008    5.9645   18.1291 H       1  UNL1        0.0000
     87 H           4.6615    5.5644   19.8165 H       1  UNL1        0.0000
     88 H           2.0259    5.0508   18.3636 H       1  UNL1        0.0000
     89 H           3.2437    3.8362   18.7593 H       1  UNL1        0.0000
     90 H           1.3846    3.8195   20.4113 H       1  UNL1        0.0000
     91 H           2.9157    4.2637   21.1735 H       1  UNL1        0.0000
     92 H           0.7431    6.2035   20.2688 H       1  UNL1        0.0000
     93 H           1.1266    5.7803   21.9410 H       1  UNL1        0.0000
     94 H           3.4076    6.7074   21.6804 H       1  UNL1        0.0000
     95 H           2.2122    7.9429   21.3015 H       1  UNL1        0.0000
@<TRIPOS>BOND
     1    80    32    1
     2    81    33    1
     3    82    33    1
     4    32    79    1
     5    32    33    1
     6    32    31    1
     7    33    34    1
     8    78    31    1
     9    77    31    1
    10    31    30    1
    11    34    83    1
    12    34    84    1
    13    34    29    1
    14    64    20    1
    15    65    20    1
    16    74    29    1
    17    30    29    1
    18    30    75    1
    19    30    76    1
    20    29     2    1
    21    20    21    1
    22    20    19    1
    23    86    36    1
    24    66    21    1
    25    62    19    1
    26    88    37    1
    27    89    37    1
    28    85    35    1
    29    21    67    1
    30    21    22    1
    31    60    18    1
    32    69    22    1
    33    19    63    1
    34    19    18    1
    35    37    36    1
    36    37    38    1
    37    36    35    1
    38    36    87    1
    39    73    27    1
    40    35     2    1
    41    35    40    1
    42    22    68    1
    43    22    17    1
    44    18    61    1
    45    18    17    1
    46     2    28    1
    47    92    39    1
    48    27    28   ar
    49    27    26   ar
    50    90    38    1
    51    38    39    1
    52    38    91    1
    53    17    59    1
    54    17     1    1
    55    28    23   ar
    56    72    26    1
    57    39    40    1
    58    39    93    1
    59    40    95    1
    60    40    94    1
    61    26    25   ar
    62     1    11    1
    63     1    10    1
    64    48    11    1
    65    23     3    1
    66    23    24   ar
    67     3     5    1
    68     3     4    1
    69    25    24   ar
    70    25    71    1
    71    11    16    1
    72    11    12    1
    73    58    16    1
    74    47     9    1
    75    10     9   ar
    76    10     5   ar
    77    24    70    1
    78    49    12    1
    79     9     8   ar
    80     5     6   ar
    81    16    57    1
    82    16    15    1
    83    55    15    1
    84    12    50    1
    85    12    13    1
    86    43     4    1
    87    51    13    1
    88     4    42    1
    89     4    41    1
    90    15    56    1
    91    15    14    1
    92     8    46    1
    93     8     7   ar
    94     6     7   ar
    95     6    44    1
    96    13    52    1
    97    13    14    1
    98     7    45    1
    99    14    53    1
   100    14    54    1
