@<TRIPOS>MOLECULE
1,2,3
 102 108 0 0 0
SMALL
GASTEIGER

@<TRIPOS>ATOM
      1 P           3.8131    0.6525   14.7093 P.3     1  UNL1        0.0000
      2 P           5.1734    4.6526   14.6382 P.3     1  UNL1        0.0000
      3 SI          2.5378    3.2764   14.3906 Si      1  UNL1        0.0000
      4 C           4.9721   -0.5302   15.5636 C.3     1  UNL1        0.0000
      5 C           5.9676   -1.2255   14.6347 C.3     1  UNL1        0.0000
      6 C           6.7970   -2.2315   15.4314 C.3     1  UNL1        0.0000
      7 C           7.5337   -1.5367   16.5725 C.3     1  UNL1        0.0000
      8 C           6.5444   -0.8240   17.4900 C.3     1  UNL1        0.0000
      9 C           5.7187    0.1777   16.6897 C.3     1  UNL1        0.0000
     10 C           2.8719   -0.5537   13.6248 C.3     1  UNL1        0.0000
     11 C           2.1435   -1.6864   14.3456 C.3     1  UNL1        0.0000
     12 C           1.4420   -2.5830   13.3250 C.3     1  UNL1        0.0000
     13 C           0.4504   -1.7855   12.4845 C.3     1  UNL1        0.0000
     14 C           1.1639   -0.6388   11.7761 C.3     1  UNL1        0.0000
     15 C           1.8692    0.2419   12.8004 C.3     1  UNL1        0.0000
     16 C           2.5818    0.9831   16.0057 C.ar    1  UNL1        0.0000
     17 C           2.2599    0.1291   17.0553 C.ar    1  UNL1        0.0000
     18 C           1.3055    0.5063   17.9838 C.ar    1  UNL1        0.0000
     19 C           0.6664    1.7288   17.8648 C.ar    1  UNL1        0.0000
     20 C           0.9856    2.5729   16.8154 C.ar    1  UNL1        0.0000
     21 C           1.9428    2.2152   15.8790 C.ar    1  UNL1        0.0000
     22 C           0.9123    3.4769   13.3877 C.ar    1  UNL1        0.0000
     23 C          -0.2320    2.7519   13.6901 C.ar    1  UNL1        0.0000
     24 C          -1.4073    2.9273   12.9818 C.ar    1  UNL1        0.0000
     25 C          -1.4645    3.8468   11.9489 C.ar    1  UNL1        0.0000
     26 C          -0.3409    4.5965   11.6468 C.ar    1  UNL1        0.0000
     27 C           0.8279    4.4094   12.3627 C.ar    1  UNL1        0.0000
     28 C           2.5705    4.9843   15.2468 C.ar    1  UNL1        0.0000
     29 C           1.4533    5.6929   15.6595 C.ar    1  UNL1        0.0000
     30 C           1.5856    6.8297   16.4365 C.ar    1  UNL1        0.0000
     31 C           2.8464    7.2551   16.8229 C.ar    1  UNL1        0.0000
     32 C           3.9744    6.5931   16.3701 C.ar    1  UNL1        0.0000
     33 C           3.8378    5.4704   15.5594 C.ar    1  UNL1        0.0000
     34 C           5.4843    5.9800   13.3519 C.3     1  UNL1        0.0000
     35 C           4.2289    6.0522   12.4912 C.3     1  UNL1        0.0000
     36 C           4.4278    6.9609   11.2839 C.3     1  UNL1        0.0000
     37 C           4.8201    8.3594   11.7502 C.3     1  UNL1        0.0000
     38 C           6.0702    8.2939   12.6214 C.3     1  UNL1        0.0000
     39 C           5.8502    7.3827   13.8300 C.3     1  UNL1        0.0000
     40 C           6.6411    4.9073   15.7488 C.3     1  UNL1        0.0000
     41 C           6.5196    4.0379   16.9951 C.3     1  UNL1        0.0000
     42 C           7.6300    4.3735   17.9851 C.3     1  UNL1        0.0000
     43 C           8.9943    4.1793   17.3295 C.3     1  UNL1        0.0000
     44 C           9.1115    5.0380   16.0736 C.3     1  UNL1        0.0000
     45 C           8.0003    4.6931   15.0835 C.3     1  UNL1        0.0000
     46 H           4.3369   -1.3075   16.0098 H       1  UNL1        0.0000
     47 H           5.4456   -1.7472   13.8285 H       1  UNL1        0.0000
     48 H           6.6392   -0.4903   14.1885 H       1  UNL1        0.0000
     49 H           6.1390   -3.0038   15.8400 H       1  UNL1        0.0000
     50 H           7.5146   -2.7213   14.7692 H       1  UNL1        0.0000
     51 H           8.1143   -2.2668   17.1407 H       1  UNL1        0.0000
     52 H           8.2281   -0.8038   16.1557 H       1  UNL1        0.0000
     53 H           5.8815   -1.5585   17.9555 H       1  UNL1        0.0000
     54 H           7.0809   -0.3063   18.2881 H       1  UNL1        0.0000
     55 H           6.3874    0.9237   16.2597 H       1  UNL1        0.0000
     56 H           5.0091    0.6995   17.3384 H       1  UNL1        0.0000
     57 H           3.6197   -0.9977   12.9545 H       1  UNL1        0.0000
     58 H           2.8389   -2.2961   14.9249 H       1  UNL1        0.0000
     59 H           1.4002   -1.2689   15.0281 H       1  UNL1        0.0000
     60 H           2.1886   -3.0391   12.6689 H       1  UNL1        0.0000
     61 H           0.9223   -3.3893   13.8476 H       1  UNL1        0.0000
     62 H          -0.0301   -2.4398   11.7540 H       1  UNL1        0.0000
     63 H          -0.3276   -1.3765   13.1330 H       1  UNL1        0.0000
     64 H           1.8926   -1.0459   11.0690 H       1  UNL1        0.0000
     65 H           0.4461   -0.0404   11.2109 H       1  UNL1        0.0000
     66 H           1.1257    0.6734   13.4711 H       1  UNL1        0.0000
     67 H           2.3795    1.0721   12.3061 H       1  UNL1        0.0000
     68 H           2.7490   -0.8266   17.1757 H       1  UNL1        0.0000
     69 H           1.0654   -0.1555   18.8042 H       1  UNL1        0.0000
     70 H          -0.0752    2.0242   18.5937 H       1  UNL1        0.0000
     71 H           0.4911    3.5281   16.7282 H       1  UNL1        0.0000
     72 H          -0.2124    2.0486   14.5102 H       1  UNL1        0.0000
     73 H          -2.2838    2.3483   13.2390 H       1  UNL1        0.0000
     74 H          -2.3798    3.9854   11.3912 H       1  UNL1        0.0000
     75 H          -0.3775    5.3303   10.8531 H       1  UNL1        0.0000
     76 H           1.6906    5.0132   12.1286 H       1  UNL1        0.0000
     77 H           0.4740    5.3552   15.3520 H       1  UNL1        0.0000
     78 H           0.7102    7.3774   16.7560 H       1  UNL1        0.0000
     79 H           2.9545    8.1209   17.4613 H       1  UNL1        0.0000
     80 H           4.9456    6.9581   16.6725 H       1  UNL1        0.0000
     81 H           6.3183    5.5914   12.7504 H       1  UNL1        0.0000
     82 H           3.9593    5.0371   12.1828 H       1  UNL1        0.0000
     83 H           3.4065    6.4386   13.1004 H       1  UNL1        0.0000
     84 H           5.2164    6.5611   10.6394 H       1  UNL1        0.0000
     85 H           3.5080    7.0067   10.6958 H       1  UNL1        0.0000
     86 H           4.9992    9.0064   10.8887 H       1  UNL1        0.0000
     87 H           3.9987    8.7885   12.3286 H       1  UNL1        0.0000
     88 H           6.9068    7.9149   12.0278 H       1  UNL1        0.0000
     89 H           6.3346    9.2961   12.9659 H       1  UNL1        0.0000
     90 H           5.0376    7.7870   14.4367 H       1  UNL1        0.0000
     91 H           6.7608    7.3711   14.4307 H       1  UNL1        0.0000
     92 H           6.5842    5.9588   16.0629 H       1  UNL1        0.0000
     93 H           5.5359    4.1833   17.4530 H       1  UNL1        0.0000
     94 H           6.5978    2.9886   16.7091 H       1  UNL1        0.0000
     95 H           7.5271    5.4111   18.3142 H       1  UNL1        0.0000
     96 H           7.5443    3.7343   18.8665 H       1  UNL1        0.0000
     97 H           9.7884    4.4379   18.0336 H       1  UNL1        0.0000
     98 H           9.1151    3.1285   17.0571 H       1  UNL1        0.0000
     99 H           9.0424    6.0945   16.3485 H       1  UNL1        0.0000
    100 H          10.0847    4.8788   15.6038 H       1  UNL1        0.0000
    101 H           8.1111    3.6526   14.7776 H       1  UNL1        0.0000
    102 H           8.0959    5.3180   14.1919 H       1  UNL1        0.0000
@<TRIPOS>BOND
     1    84    36    1
     2    85    36    1
     3    75    26    1
     4    86    37    1
     5    64    14    1
     6    65    14    1
     7    36    37    1
     8    36    35    1
     9    74    25    1
    10    26    25   ar
    11    26    27   ar
    12    37    87    1
    13    37    38    1
    14    62    13    1
    15    14    13    1
    16    14    15    1
    17    25    24   ar
    18    88    38    1
    19    76    27    1
    20    82    35    1
    21    67    15    1
    22    27    22   ar
    23    13    63    1
    24    13    12    1
    25    35    83    1
    26    35    34    1
    27    38    89    1
    28    38    39    1
    29    60    12    1
    30    81    34    1
    31    15    66    1
    32    15    10    1
    33    57    10    1
    34    24    73    1
    35    24    23   ar
    36    12    61    1
    37    12    11    1
    38    34    39    1
    39    34     2    1
    40    22    23   ar
    41    22     3    1
    42    10    11    1
    43    10     1    1
    44    23    72    1
    45    47     5    1
    46    39    91    1
    47    39    90    1
    48    48     5    1
    49   102    45    1
    50    11    58    1
    51    11    59    1
    52     3    28    1
    53     3    21    1
    54     5     6    1
    55     5     4    1
    56     2    33    1
    57     2    40    1
    58     1     4    1
    59     1    16    1
    60    50     6    1
    61   101    45    1
    62    45    40    1
    63    45    44    1
    64    28    33   ar
    65    28    29   ar
    66    77    29    1
    67     6    49    1
    68     6     7    1
    69    33    32   ar
    70     4    46    1
    71     4     9    1
    72   100    44    1
    73    29    30   ar
    74    40    92    1
    75    40    41    1
    76    21    16   ar
    77    21    20   ar
    78    16    17   ar
    79    44    99    1
    80    44    43    1
    81    52     7    1
    82    55     9    1
    83    32    80    1
    84    32    31   ar
    85    30    78    1
    86    30    31   ar
    87     7    51    1
    88     7     8    1
    89     9    56    1
    90     9     8    1
    91    94    41    1
    92    71    20    1
    93    20    19   ar
    94    31    79    1
    95    41    93    1
    96    41    42    1
    97    17    68    1
    98    17    18   ar
    99    98    43    1
   100    43    42    1
   101    43    97    1
   102     8    53    1
   103     8    54    1
   104    19    18   ar
   105    19    70    1
   106    18    69    1
   107    42    95    1
   108    42    96    1
