@<TRIPOS>MOLECULE
1,2,3
 95 100 0 0 0
SMALL
GASTEIGER

@<TRIPOS>ATOM
      1 P          13.3949    3.3489    6.1810 P.3     1  UNL1        0.0000
      2 P          15.3225    2.7768    9.7512 P.3     1  UNL1        0.0000
      3 SI         15.1980    1.1451    7.1836 Si      1  UNL1        0.0000
      4 C          12.0684    4.6439    6.4154 C.3     1  UNL1        0.0000
      5 C          11.6754    4.7145    7.8884 C.3     1  UNL1        0.0000
      6 C          10.5943    5.7671    8.1153 C.3     1  UNL1        0.0000
      7 C          11.0621    7.1302    7.6169 C.3     1  UNL1        0.0000
      8 C          11.4221    7.0510    6.1373 C.3     1  UNL1        0.0000
      9 C          12.5226    6.0162    5.9153 C.3     1  UNL1        0.0000
     10 C          13.5350    3.3329    4.3084 C.3     1  UNL1        0.0000
     11 C          12.2190    3.3365    3.5318 C.3     1  UNL1        0.0000
     12 C          12.4973    3.3528    2.0284 C.3     1  UNL1        0.0000
     13 C          13.3352    2.1495    1.6115 C.3     1  UNL1        0.0000
     14 C          14.6424    2.1282    2.3958 C.3     1  UNL1        0.0000
     15 C          14.3537    2.1151    3.8929 C.3     1  UNL1        0.0000
     16 C          12.5275    1.7683    6.4448 C.ar    1  UNL1        0.0000
     17 C          11.1668    1.5605    6.2549 C.ar    1  UNL1        0.0000
     18 C          10.6275    0.3004    6.4496 C.ar    1  UNL1        0.0000
     19 C          11.4430   -0.7539    6.8245 C.ar    1  UNL1        0.0000
     20 C          12.7969   -0.5415    7.0204 C.ar    1  UNL1        0.0000
     21 C          13.3525    0.7142    6.8432 C.ar    1  UNL1        0.0000
     22 C          16.1873    0.0453    5.9228 C.3     1  UNL1        0.0000
     23 C          15.5808    0.2288    8.8338 C.ar    1  UNL1        0.0000
     24 C          15.8055   -1.1348    8.9310 C.ar    1  UNL1        0.0000
     25 C          16.2022   -1.7100   10.1253 C.ar    1  UNL1        0.0000
     26 C          16.4020   -0.9129   11.2401 C.ar    1  UNL1        0.0000
     27 C          16.1746    0.4499   11.1659 C.ar    1  UNL1        0.0000
     28 C          15.7502    1.0191    9.9704 C.ar    1  UNL1        0.0000
     29 C          16.4969    3.6287   10.9233 C.3     1  UNL1        0.0000
     30 C          17.9158    3.4562   10.3921 C.3     1  UNL1        0.0000
     31 C          18.9323    4.1482   11.2941 C.3     1  UNL1        0.0000
     32 C          18.5874    5.6236   11.4695 C.3     1  UNL1        0.0000
     33 C          17.1757    5.7717   12.0269 C.3     1  UNL1        0.0000
     34 C          16.1720    5.1119   11.0856 C.3     1  UNL1        0.0000
     35 C          13.7003    2.8595   10.6847 C.3     1  UNL1        0.0000
     36 C          13.7498    2.5682   12.1829 C.3     1  UNL1        0.0000
     37 C          12.3496    2.6834   12.7853 C.3     1  UNL1        0.0000
     38 C          11.3866    1.7136   12.1093 C.3     1  UNL1        0.0000
     39 C          11.3351    1.9940   10.6115 C.3     1  UNL1        0.0000
     40 C          12.7316    1.8912   10.0096 C.3     1  UNL1        0.0000
     41 H          11.1859    4.3387    5.8408 H       1  UNL1        0.0000
     42 H          11.3109    3.7370    8.2119 H       1  UNL1        0.0000
     43 H          12.5554    4.9638    8.4858 H       1  UNL1        0.0000
     44 H           9.6858    5.4771    7.5799 H       1  UNL1        0.0000
     45 H          10.3498    5.8210    9.1788 H       1  UNL1        0.0000
     46 H          10.2792    7.8756    7.7736 H       1  UNL1        0.0000
     47 H          11.9428    7.4394    8.1837 H       1  UNL1        0.0000
     48 H          10.5348    6.7735    5.5610 H       1  UNL1        0.0000
     49 H          11.7590    8.0273    5.7819 H       1  UNL1        0.0000
     50 H          13.4148    6.3319    6.4578 H       1  UNL1        0.0000
     51 H          12.7722    5.9722    4.8526 H       1  UNL1        0.0000
     52 H          14.0998    4.2412    4.0545 H       1  UNL1        0.0000
     53 H          11.6496    2.4386    3.7817 H       1  UNL1        0.0000
     54 H          11.6135    4.2096    3.7774 H       1  UNL1        0.0000
     55 H          11.5501    3.3542    1.4841 H       1  UNL1        0.0000
     56 H          13.0307    4.2716    1.7698 H       1  UNL1        0.0000
     57 H          12.7777    1.2322    1.8143 H       1  UNL1        0.0000
     58 H          13.5380    2.1893    0.5390 H       1  UNL1        0.0000
     59 H          15.2275    1.2464    2.1262 H       1  UNL1        0.0000
     60 H          15.2331    3.0124    2.1417 H       1  UNL1        0.0000
     61 H          15.2836    2.0958    4.4571 H       1  UNL1        0.0000
     62 H          13.7978    1.2087    4.1447 H       1  UNL1        0.0000
     63 H          10.5113    2.3706    5.9692 H       1  UNL1        0.0000
     64 H           9.5673    0.1429    6.3081 H       1  UNL1        0.0000
     65 H          11.0189   -1.7371    6.9738 H       1  UNL1        0.0000
     66 H          13.4289   -1.3608    7.3286 H       1  UNL1        0.0000
     67 H          15.5150   -0.5662    5.3317 H       1  UNL1        0.0000
     68 H          16.7863    0.6367    5.2392 H       1  UNL1        0.0000
     69 H          16.8710   -0.6085    6.4506 H       1  UNL1        0.0000
     70 H          15.6797   -1.7585    8.0583 H       1  UNL1        0.0000
     71 H          16.3721   -2.7760   10.1866 H       1  UNL1        0.0000
     72 H          16.7362   -1.3527   12.1695 H       1  UNL1        0.0000
     73 H          16.3505    1.0560   12.0428 H       1  UNL1        0.0000
     74 H          16.4235    3.1422   11.9029 H       1  UNL1        0.0000
     75 H          18.1577    2.3927   10.3163 H       1  UNL1        0.0000
     76 H          17.9614    3.8839    9.3857 H       1  UNL1        0.0000
     77 H          18.9383    3.6597   12.2726 H       1  UNL1        0.0000
     78 H          19.9322    4.0454   10.8662 H       1  UNL1        0.0000
     79 H          19.3079    6.0978   12.1398 H       1  UNL1        0.0000
     80 H          18.6441    6.1259   10.5012 H       1  UNL1        0.0000
     81 H          17.1204    5.3036   13.0138 H       1  UNL1        0.0000
     82 H          16.9298    6.8292   12.1435 H       1  UNL1        0.0000
     83 H          16.2291    5.6091   10.1164 H       1  UNL1        0.0000
     84 H          15.1580    5.2406   11.4719 H       1  UNL1        0.0000
     85 H          13.3349    3.8850   10.5331 H       1  UNL1        0.0000
     86 H          14.1197    1.5537   12.3443 H       1  UNL1        0.0000
     87 H          14.4106    3.2673   12.6980 H       1  UNL1        0.0000
     88 H          12.3966    2.4771   13.8572 H       1  UNL1        0.0000
     89 H          11.9828    3.7052   12.6577 H       1  UNL1        0.0000
     90 H          11.7276    0.6889   12.2746 H       1  UNL1        0.0000
     91 H          10.3901    1.8109   12.5457 H       1  UNL1        0.0000
     92 H          10.6697    1.2841   10.1148 H       1  UNL1        0.0000
     93 H          10.9375    2.9989   10.4481 H       1  UNL1        0.0000
     94 H          12.6969    2.1023    8.9386 H       1  UNL1        0.0000
     95 H          13.1006    0.8685   10.1282 H       1  UNL1        0.0000
@<TRIPOS>BOND
     1    58    13    1
     2    55    12    1
     3    13    57    1
     4    13    12    1
     5    13    14    1
     6    56    12    1
     7    12    11    1
     8    59    14    1
     9    60    14    1
    10    14    15    1
    11    11    54    1
    12    11    53    1
    13    11    10    1
    14    15    62    1
    15    15    10    1
    16    15    61    1
    17    52    10    1
    18    10     1    1
    19    51     9    1
    20    68    22    1
    21    67    22    1
    22    48     8    1
    23    49     8    1
    24    41     4    1
    25     9     8    1
    26     9     4    1
    27     9    50    1
    28    22    69    1
    29    22     3    1
    30    63    17    1
    31     8     7    1
    32     1     4    1
    33     1    16    1
    34    17    16   ar
    35    17    18   ar
    36    64    18    1
    37     4     5    1
    38    16    21   ar
    39    18    19   ar
    40    19    65    1
    41    19    20   ar
    42    21    20   ar
    43    21     3    1
    44    20    66    1
    45     3    23    1
    46    44     6    1
    47     7    46    1
    48     7     6    1
    49     7    47    1
    50     5     6    1
    51     5    42    1
    52     5    43    1
    53    70    24    1
    54     6    45    1
    55    23    24   ar
    56    23    28   ar
    57    24    25   ar
    58    94    40    1
    59    76    30    1
    60     2    28    1
    61     2    35    1
    62     2    29    1
    63    28    27   ar
    64    40    95    1
    65    40    39    1
    66    40    35    1
    67    92    39    1
    68    83    34    1
    69    25    71    1
    70    25    26   ar
    71    75    30    1
    72    30    29    1
    73    30    31    1
    74    93    39    1
    75    80    32    1
    76    85    35    1
    77    39    38    1
    78    35    36    1
    79    78    31    1
    80    29    34    1
    81    29    74    1
    82    34    84    1
    83    34    33    1
    84    27    26   ar
    85    27    73    1
    86    26    72    1
    87    31    32    1
    88    31    77    1
    89    32    33    1
    90    32    79    1
    91    33    82    1
    92    33    81    1
    93    38    90    1
    94    38    91    1
    95    38    37    1
    96    36    86    1
    97    36    87    1
    98    36    37    1
    99    89    37    1
   100    37    88    1
