@<TRIPOS>MOLECULE
1,2,3
 95 100 0 0 0
SMALL
GASTEIGER

@<TRIPOS>ATOM
      1 P           7.3802    2.4438    5.5643 P.3     1  UNL1        0.0000
      2 P           4.4761    5.5064    7.3717 P.3     1  UNL1        0.0000
      3 SI          4.3167    2.5163    6.3699 Si      1  UNL1        0.0000
      4 C           2.9757    2.1143    5.0273 C.3     1  UNL1        0.0000
      5 H           3.4004    2.0121    4.0358 H       1  UNL1        0.0000
      6 H           2.2048    2.8758    4.9870 H       1  UNL1        0.0000
      7 H           2.4945    1.1742    5.2787 H       1  UNL1        0.0000
      8 C           5.2998    0.8648    6.4991 C.ar    1  UNL1        0.0000
      9 C           6.6501    0.8646    6.1327 C.ar    1  UNL1        0.0000
     10 C           7.3918   -0.3091    6.2104 C.ar    1  UNL1        0.0000
     11 H           8.4413   -0.3128    5.9535 H       1  UNL1        0.0000
     12 C           6.8003   -1.4875    6.6320 C.ar    1  UNL1        0.0000
     13 H           7.3860   -2.3937    6.6922 H       1  UNL1        0.0000
     14 C           5.4600   -1.4989    6.9756 C.ar    1  UNL1        0.0000
     15 H           4.9931   -2.4170    7.3022 H       1  UNL1        0.0000
     16 C           4.7236   -0.3283    6.9063 C.ar    1  UNL1        0.0000
     17 H           3.6795   -0.3444    7.1798 H       1  UNL1        0.0000
     18 C           3.2478    3.0620    7.8782 C.ar    1  UNL1        0.0000
     19 C           3.3196    4.4035    8.2648 C.ar    1  UNL1        0.0000
     20 C           2.5194    4.8786    9.2970 C.ar    1  UNL1        0.0000
     21 H           2.5694    5.9195    9.5862 H       1  UNL1        0.0000
     22 C           1.6555    4.0272    9.9633 C.ar    1  UNL1        0.0000
     23 H           1.0405    4.4011   10.7694 H       1  UNL1        0.0000
     24 C           1.5836    2.6960    9.5907 C.ar    1  UNL1        0.0000
     25 H           0.9115    2.0265   10.1081 H       1  UNL1        0.0000
     26 C           2.3699    2.2269    8.5517 C.ar    1  UNL1        0.0000
     27 H           2.2977    1.1897    8.2621 H       1  UNL1        0.0000
     28 C           7.6259    2.1622    3.7348 C.3     1  UNL1        0.0000
     29 H           8.1138    3.0738    3.3639 H       1  UNL1        0.0000
     30 C           6.2353    2.0793    3.1095 C.3     1  UNL1        0.0000
     31 H           5.6666    2.9621    3.4052 H       1  UNL1        0.0000
     32 H           5.7229    1.1944    3.4985 H       1  UNL1        0.0000
     33 C           6.3231    1.9967    1.5892 C.3     1  UNL1        0.0000
     34 H           5.3203    1.9141    1.1646 H       1  UNL1        0.0000
     35 H           6.7744    2.9134    1.2020 H       1  UNL1        0.0000
     36 C           7.1676    0.7982    1.1690 C.3     1  UNL1        0.0000
     37 H           7.2518    0.7599    0.0809 H       1  UNL1        0.0000
     38 H           6.6805   -0.1219    1.5008 H       1  UNL1        0.0000
     39 C           8.5553    0.8879    1.7948 C.3     1  UNL1        0.0000
     40 H           9.1534    0.0213    1.5035 H       1  UNL1        0.0000
     41 H           9.0622    1.7826    1.4244 H       1  UNL1        0.0000
     42 C           8.4572    0.9519    3.3190 C.3     1  UNL1        0.0000
     43 H           9.4654    1.0034    3.7361 H       1  UNL1        0.0000
     44 H           7.9776    0.0402    3.6810 H       1  UNL1        0.0000
     45 C           9.1166    2.4057    6.2426 C.3     1  UNL1        0.0000
     46 H           9.6793    1.5801    5.7917 H       1  UNL1        0.0000
     47 C           9.0917    2.2251    7.7586 C.3     1  UNL1        0.0000
     48 H           8.6161    1.2762    8.0155 H       1  UNL1        0.0000
     49 H           8.4886    3.0210    8.2013 H       1  UNL1        0.0000
     50 C          10.5060    2.2766    8.3302 C.3     1  UNL1        0.0000
     51 H          10.4687    2.1564    9.4148 H       1  UNL1        0.0000
     52 H          11.0952    1.4505    7.9234 H       1  UNL1        0.0000
     53 C          11.1785    3.5995    7.9752 C.3     1  UNL1        0.0000
     54 H          12.1947    3.6231    8.3742 H       1  UNL1        0.0000
     55 H          10.6213    4.4212    8.4313 H       1  UNL1        0.0000
     56 C          11.2093    3.7881    6.4617 C.3     1  UNL1        0.0000
     57 H          11.8173    2.9996    6.0101 H       1  UNL1        0.0000
     58 H          11.6700    4.7470    6.2130 H       1  UNL1        0.0000
     59 C           9.7968    3.7283    5.8883 C.3     1  UNL1        0.0000
     60 H           9.8356    3.8570    4.8025 H       1  UNL1        0.0000
     61 H           9.2056    4.5497    6.3070 H       1  UNL1        0.0000
     62 C           5.2640    6.5051    8.7360 C.3     1  UNL1        0.0000
     63 H           4.5475    7.2412    9.1153 H       1  UNL1        0.0000
     64 C           5.7387    5.6471    9.9062 C.3     1  UNL1        0.0000
     65 H           4.8926    5.1362   10.3695 H       1  UNL1        0.0000
     66 H           6.4222    4.8793    9.5397 H       1  UNL1        0.0000
     67 C           6.4514    6.5176   10.9391 C.3     1  UNL1        0.0000
     68 H           5.7520    7.2570   11.3382 H       1  UNL1        0.0000
     69 H           6.7900    5.8966   11.7711 H       1  UNL1        0.0000
     70 C           7.6411    7.2375   10.3105 C.3     1  UNL1        0.0000
     71 H           8.3664    6.4972    9.9640 H       1  UNL1        0.0000
     72 H           8.1349    7.8657   11.0550 H       1  UNL1        0.0000
     73 C           7.1839    8.0891    9.1298 C.3     1  UNL1        0.0000
     74 H           8.0433    8.5766    8.6633 H       1  UNL1        0.0000
     75 H           6.5103    8.8730    9.4858 H       1  UNL1        0.0000
     76 C           6.4575    7.2235    8.1069 C.3     1  UNL1        0.0000
     77 H           6.1329    7.8304    7.2559 H       1  UNL1        0.0000
     78 H           7.1465    6.4594    7.7272 H       1  UNL1        0.0000
     79 C           3.3287    6.7312    6.5215 C.3     1  UNL1        0.0000
     80 H           3.8500    6.9625    5.5832 H       1  UNL1        0.0000
     81 C           2.0102    6.0407    6.1695 C.3     1  UNL1        0.0000
     82 H           2.2141    5.0822    5.6886 H       1  UNL1        0.0000
     83 H           1.4443    5.8381    7.0823 H       1  UNL1        0.0000
     84 C           1.1744    6.9274    5.2514 C.3     1  UNL1        0.0000
     85 H           1.7203    7.1034    4.3243 H       1  UNL1        0.0000
     86 H           0.2359    6.4251    5.0057 H       1  UNL1        0.0000
     87 C           0.8930    8.2656    5.9254 C.3     1  UNL1        0.0000
     88 H           0.2979    8.1023    6.8278 H       1  UNL1        0.0000
     89 H           0.3171    8.9089    5.2570 H       1  UNL1        0.0000
     90 C           2.2056    8.9460    6.2969 C.3     1  UNL1        0.0000
     91 H           2.0060    9.9009    6.7892 H       1  UNL1        0.0000
     92 H           2.7788    9.1477    5.3891 H       1  UNL1        0.0000
     93 C           3.0371    8.0573    7.2224 C.3     1  UNL1        0.0000
     94 H           3.9620    8.5834    7.4643 H       1  UNL1        0.0000
     95 H           2.4785    7.8859    8.1463 H       1  UNL1        0.0000
@<TRIPOS>BOND
     1    37    36    1
     2    34    33    1
     3    36    38    1
     4    36    33    1
     5    36    39    1
     6    35    33    1
     7    41    39    1
     8    40    39    1
     9    33    30    1
    10    39    42    1
    11    30    31    1
    12    30    32    1
    13    30    28    1
    14    42    44    1
    15    42    28    1
    16    42    43    1
    17    29    28    1
    18    28     1    1
    19     5     4    1
    20    85    84    1
    21    60    59    1
    22     6     4    1
    23    86    84    1
    24     4     7    1
    25     4     3    1
    26    84    87    1
    27    84    81    1
    28    89    87    1
    29    92    90    1
    30     1     9    1
    31     1    45    1
    32    80    79    1
    33    82    81    1
    34    46    45    1
    35    59    45    1
    36    59    61    1
    37    59    56    1
    38    87    90    1
    39    87    88    1
    40    11    10    1
    41    57    56    1
    42     9    10   ar
    43     9     8   ar
    44    81    79    1
    45    81    83    1
    46    10    12   ar
    47    58    56    1
    48    45    47    1
    49    90    91    1
    50    90    93    1
    51     3     8    1
    52     3    18    1
    53    56    53    1
    54     8    16   ar
    55    79    93    1
    56    79     2    1
    57    12    13    1
    58    12    14   ar
    59    16    14   ar
    60    16    17    1
    61    14    15    1
    62    93    94    1
    63    93    95    1
    64    77    76    1
    65     2    19    1
    66     2    62    1
    67    78    76    1
    68    47    48    1
    69    47    49    1
    70    47    50    1
    71    18    19   ar
    72    18    26   ar
    73    52    50    1
    74    53    50    1
    75    53    54    1
    76    53    55    1
    77    76    62    1
    78    76    73    1
    79    27    26    1
    80    19    20   ar
    81    50    51    1
    82    26    24   ar
    83    74    73    1
    84    62    63    1
    85    62    64    1
    86    73    75    1
    87    73    70    1
    88    20    21    1
    89    20    22   ar
    90    66    64    1
    91    24    22   ar
    92    24    25    1
    93    64    65    1
    94    64    67    1
    95    22    23    1
    96    71    70    1
    97    70    67    1
    98    70    72    1
    99    67    68    1
   100    67    69    1
