@<TRIPOS>MOLECULE
1,2,3
 71 76 0 0 0
SMALL
GASTEIGER

@<TRIPOS>ATOM
      1 P           4.9671    1.9825    4.2346 P.3     1  UNL1        0.0000
      2 P           4.4627    5.6095    4.3719 P.3     1  UNL1        0.0000
      3 SI          2.2623    3.3898    3.7340 Si      1  UNL1        0.0000
      4 C           0.3864    3.7955    3.6234 C.3     1  UNL1        0.0000
      5 C           2.5228    1.6452    2.9752 C.ar    1  UNL1        0.0000
      6 C           1.6037    0.9571    2.1987 C.ar    1  UNL1        0.0000
      7 C           1.9162   -0.2735    1.6469 C.ar    1  UNL1        0.0000
      8 C           3.1681   -0.8293    1.8558 C.ar    1  UNL1        0.0000
      9 C           4.0998   -0.1595    2.6283 C.ar    1  UNL1        0.0000
     10 C           3.7718    1.0665    3.1927 C.ar    1  UNL1        0.0000
     11 C           6.2240    2.3674    2.9689 C.ar    1  UNL1        0.0000
     12 C           5.8467    2.6179    1.6517 C.ar    1  UNL1        0.0000
     13 C           6.7890    3.0134    0.7205 C.ar    1  UNL1        0.0000
     14 C           8.1174    3.1584    1.0883 C.ar    1  UNL1        0.0000
     15 C           8.4968    2.9278    2.4012 C.ar    1  UNL1        0.0000
     16 C           7.5537    2.5543    3.3398 C.ar    1  UNL1        0.0000
     17 C           5.6986    0.5607    5.1233 C.ar    1  UNL1        0.0000
     18 C           6.8376   -0.1448    4.7542 C.ar    1  UNL1        0.0000
     19 C           7.2550   -1.2265    5.5106 C.ar    1  UNL1        0.0000
     20 C           6.5384   -1.6246    6.6263 C.ar    1  UNL1        0.0000
     21 C           5.3851   -0.9438    6.9826 C.ar    1  UNL1        0.0000
     22 C           4.9724    0.1400    6.2335 C.ar    1  UNL1        0.0000
     23 C           3.0273    4.4622    2.3206 C.ar    1  UNL1        0.0000
     24 C           2.6454    4.2975    0.9961 C.ar    1  UNL1        0.0000
     25 C           3.2169    5.0479   -0.0155 C.ar    1  UNL1        0.0000
     26 C           4.1773    5.9979    0.2912 C.ar    1  UNL1        0.0000
     27 C           4.5696    6.1837    1.6035 C.ar    1  UNL1        0.0000
     28 C           4.0132    5.4053    2.6126 C.ar    1  UNL1        0.0000
     29 C           3.4264    7.0931    4.6731 C.ar    1  UNL1        0.0000
     30 C           2.2137    6.9418    5.3335 C.ar    1  UNL1        0.0000
     31 C           1.3767    8.0258    5.5252 C.ar    1  UNL1        0.0000
     32 C           1.7412    9.2745    5.0515 C.ar    1  UNL1        0.0000
     33 C           2.9413    9.4298    4.3769 C.ar    1  UNL1        0.0000
     34 C           3.7779    8.3469    4.1823 C.ar    1  UNL1        0.0000
     35 C           6.1204    6.3615    4.3199 C.ar    1  UNL1        0.0000
     36 C           7.0914    5.8770    3.4462 C.ar    1  UNL1        0.0000
     37 C           8.3928    6.3358    3.5235 C.ar    1  UNL1        0.0000
     38 C           8.7486    7.2659    4.4875 C.ar    1  UNL1        0.0000
     39 C           7.7946    7.7340    5.3780 C.ar    1  UNL1        0.0000
     40 C           6.4911    7.2815    5.3015 C.ar    1  UNL1        0.0000
     41 H          -0.1908    3.1150    4.2376 H       1  UNL1        0.0000
     42 H           0.0240    3.7265    2.6039 H       1  UNL1        0.0000
     43 H           0.1946    4.8038    3.9719 H       1  UNL1        0.0000
     44 H           0.6271    1.3869    2.0314 H       1  UNL1        0.0000
     45 H           1.1856   -0.8016    1.0503 H       1  UNL1        0.0000
     46 H           3.4166   -1.7872    1.4212 H       1  UNL1        0.0000
     47 H           5.0764   -0.5944    2.7946 H       1  UNL1        0.0000
     48 H           4.8132    2.5008    1.3575 H       1  UNL1        0.0000
     49 H           6.4843    3.2080   -0.2976 H       1  UNL1        0.0000
     50 H           8.8528    3.4569    0.3553 H       1  UNL1        0.0000
     51 H           9.5292    3.0459    2.6985 H       1  UNL1        0.0000
     52 H           7.8450    2.4016    4.3686 H       1  UNL1        0.0000
     53 H           7.4028    0.1409    3.8784 H       1  UNL1        0.0000
     54 H           8.1463   -1.7654    5.2215 H       1  UNL1        0.0000
     55 H           6.8743   -2.4676    7.2124 H       1  UNL1        0.0000
     56 H           4.8135   -1.2550    7.8453 H       1  UNL1        0.0000
     57 H           4.0731    0.6848    6.4958 H       1  UNL1        0.0000
     58 H           1.8954    3.5573    0.7544 H       1  UNL1        0.0000
     59 H           2.9139    4.8971   -1.0423 H       1  UNL1        0.0000
     60 H           4.6205    6.5964   -0.4924 H       1  UNL1        0.0000
     61 H           5.3164    6.9309    1.8337 H       1  UNL1        0.0000
     62 H           1.9325    5.9617    5.6969 H       1  UNL1        0.0000
     63 H           0.4390    7.8951    6.0457 H       1  UNL1        0.0000
     64 H           1.0917   10.1244    5.2023 H       1  UNL1        0.0000
     65 H           3.2257   10.4008    3.9969 H       1  UNL1        0.0000
     66 H           4.7104    8.4824    3.6530 H       1  UNL1        0.0000
     67 H           6.8182    5.1449    2.7003 H       1  UNL1        0.0000
     68 H           9.1319    5.9620    2.8294 H       1  UNL1        0.0000
     69 H           9.7666    7.6224    4.5484 H       1  UNL1        0.0000
     70 H           8.0675    8.4514    6.1387 H       1  UNL1        0.0000
     71 H           5.7497    7.6434    6.0010 H       1  UNL1        0.0000
@<TRIPOS>BOND
     1    59    25    1
     2    60    26    1
     3    49    13    1
     4    25    26   ar
     5    25    24   ar
     6    26    27   ar
     7    50    14    1
     8    13    14   ar
     9    13    12   ar
    10    58    24    1
    11    24    23   ar
    12    45     7    1
    13    14    15   ar
    14    48    12    1
    15    46     8    1
    16    27    61    1
    17    27    28   ar
    18     7     8   ar
    19     7     6   ar
    20    12    11   ar
    21     8     9   ar
    22    44     6    1
    23     6     5   ar
    24    23    28   ar
    25    23     3    1
    26    15    51    1
    27    15    16   ar
    28    42     4    1
    29    28     2    1
    30     9    47    1
    31     9    10   ar
    32    67    36    1
    33    68    37    1
    34    11    16   ar
    35    11     1    1
    36     5    10   ar
    37     5     3    1
    38    10     1    1
    39    16    52    1
    40    36    37   ar
    41    36    35   ar
    42    37    38   ar
    43     4     3    1
    44     4    43    1
    45     4    41    1
    46    66    34    1
    47    53    18    1
    48    65    33    1
    49    34    33   ar
    50    34    29   ar
    51     1    17    1
    52    35     2    1
    53    35    40   ar
    54     2    29    1
    55    33    32   ar
    56    38    69    1
    57    38    39   ar
    58    29    30   ar
    59    18    17   ar
    60    18    19   ar
    61    32    64    1
    62    32    31   ar
    63    17    22   ar
    64    54    19    1
    65    40    39   ar
    66    40    71    1
    67    30    31   ar
    68    30    62    1
    69    39    70    1
    70    19    20   ar
    71    31    63    1
    72    22    57    1
    73    22    21   ar
    74    20    21   ar
    75    20    55    1
    76    21    56    1
