@<TRIPOS>MOLECULE
2,3,4
 68 73 0 0 0
SMALL
GASTEIGER

@<TRIPOS>ATOM
      1 CL          8.8404   10.9003    5.6677 Cl      1  UNL1        0.0000
      2 P          12.2082   10.9039    9.4527 P.3     1  UNL1        0.0000
      3 P          10.5714   14.1223    8.4611 P.3     1  UNL1        0.0000
      4 SI          9.8801   11.3345    7.4422 Si      1  UNL1        0.0000
      5 C          10.0297    9.6350    8.3123 C.ar    1  UNL1        0.0000
      6 C           9.1580    8.5747    8.1154 C.ar    1  UNL1        0.0000
      7 H           8.3589    8.6745    7.3957 H       1  UNL1        0.0000
      8 C           9.3137    7.3920    8.8163 C.ar    1  UNL1        0.0000
      9 H           8.6324    6.5700    8.6492 H       1  UNL1        0.0000
     10 C          10.3407    7.2624    9.7383 C.ar    1  UNL1        0.0000
     11 H          10.4572    6.3435   10.2952 H       1  UNL1        0.0000
     12 C          11.2211    8.3087    9.9430 C.ar    1  UNL1        0.0000
     13 H          12.0236    8.2075   10.6611 H       1  UNL1        0.0000
     14 C          11.0785    9.4846    9.2156 C.ar    1  UNL1        0.0000
     15 C           8.5561   12.2698    8.4706 C.ar    1  UNL1        0.0000
     16 C           7.3033   11.7585    8.7697 C.ar    1  UNL1        0.0000
     17 H           7.0211   10.7904    8.3829 H       1  UNL1        0.0000
     18 C           6.4199   12.4744    9.5588 C.ar    1  UNL1        0.0000
     19 H           5.4470   12.0659    9.7910 H       1  UNL1        0.0000
     20 C           6.7889   13.7119   10.0600 C.ar    1  UNL1        0.0000
     21 H           6.1053   14.2695   10.6845 H       1  UNL1        0.0000
     22 C           8.0326   14.2411    9.7624 C.ar    1  UNL1        0.0000
     23 H           8.3125   15.2025   10.1666 H       1  UNL1        0.0000
     24 C           8.9138   13.5253    8.9625 C.ar    1  UNL1        0.0000
     25 C          13.8382   10.0978    9.5789 C.ar    1  UNL1        0.0000
     26 C          14.1337    8.9446    8.8587 C.ar    1  UNL1        0.0000
     27 H          13.3537    8.4580    8.2889 H       1  UNL1        0.0000
     28 C          15.4144    8.4217    8.8745 C.ar    1  UNL1        0.0000
     29 H          15.6334    7.5208    8.3194 H       1  UNL1        0.0000
     30 C          16.4174    9.0527    9.5923 C.ar    1  UNL1        0.0000
     31 H          17.4171    8.6439    9.6006 H       1  UNL1        0.0000
     32 C          16.1367   10.2135   10.2954 C.ar    1  UNL1        0.0000
     33 H          16.9183   10.7124   10.8507 H       1  UNL1        0.0000
     34 C          14.8574   10.7361   10.2840 C.ar    1  UNL1        0.0000
     35 H          14.6377   11.6422   10.8358 H       1  UNL1        0.0000
     36 C          11.7914   11.1449   11.2277 C.ar    1  UNL1        0.0000
     37 C          12.4547   10.5464   12.2930 C.ar    1  UNL1        0.0000
     38 H          13.3187    9.9207   12.1207 H       1  UNL1        0.0000
     39 C          12.0126   10.7537   13.5880 C.ar    1  UNL1        0.0000
     40 H          12.5372   10.2882   14.4103 H       1  UNL1        0.0000
     41 C          10.9050   11.5470   13.8354 C.ar    1  UNL1        0.0000
     42 H          10.5685   11.7054   14.8494 H       1  UNL1        0.0000
     43 C          10.2289   12.1320   12.7772 C.ar    1  UNL1        0.0000
     44 H           9.3592   12.7473   12.9563 H       1  UNL1        0.0000
     45 C          10.6714   11.9288   11.4853 C.ar    1  UNL1        0.0000
     46 H          10.1499   12.3839   10.6534 H       1  UNL1        0.0000
     47 C          10.0771   15.3814    7.2357 C.ar    1  UNL1        0.0000
     48 C          10.7727   16.5797    7.0954 C.ar    1  UNL1        0.0000
     49 H          11.5727   16.8243    7.7824 H       1  UNL1        0.0000
     50 C          10.4407   17.4637    6.0843 C.ar    1  UNL1        0.0000
     51 H          10.9814   18.3946    5.9874 H       1  UNL1        0.0000
     52 C           9.4245   17.1552    5.1954 C.ar    1  UNL1        0.0000
     53 H           9.1675   17.8474    4.4072 H       1  UNL1        0.0000
     54 C           8.7454   15.9527    5.3150 C.ar    1  UNL1        0.0000
     55 H           7.9604   15.7031    4.6163 H       1  UNL1        0.0000
     56 C           9.0730   15.0673    6.3238 C.ar    1  UNL1        0.0000
     57 H           8.5544   14.1219    6.4070 H       1  UNL1        0.0000
     58 C          11.0599   15.1641    9.8875 C.ar    1  UNL1        0.0000
     59 C          12.0525   14.6633   10.7227 C.ar    1  UNL1        0.0000
     60 H          12.5248   13.7225   10.4657 H       1  UNL1        0.0000
     61 C          12.4356   15.3513   11.8585 C.ar    1  UNL1        0.0000
     62 H          13.2025   14.9466   12.5031 H       1  UNL1        0.0000
     63 C          11.8330   16.5593   12.1667 C.ar    1  UNL1        0.0000
     64 H          12.1264   17.1012   13.0538 H       1  UNL1        0.0000
     65 C          10.8595   17.0787   11.3285 C.ar    1  UNL1        0.0000
     66 H          10.3984   18.0281   11.5609 H       1  UNL1        0.0000
     67 C          10.4729   16.3894   10.1931 C.ar    1  UNL1        0.0000
     68 H           9.7271   16.8142    9.5352 H       1  UNL1        0.0000
@<TRIPOS>BOND
     1    53    52    1
     2    55    54    1
     3    52    54   ar
     4    52    50   ar
     5    54    56   ar
     6     1     4    1
     7    51    50    1
     8    50    48   ar
     9    56    57    1
    10    56    47   ar
    11    48    47   ar
    12    48    49    1
    13    47     3    1
    14     7     6    1
    15     4     5    1
    16     4    15    1
    17     6     5   ar
    18     6     8   ar
    19    27    26    1
    20     5    14   ar
    21    29    28    1
    22    17    16    1
    23     3    24    1
    24     3    58    1
    25    15    16   ar
    26    15    24   ar
    27     9     8    1
    28    16    18   ar
    29     8    10   ar
    30    26    28   ar
    31    26    25   ar
    32    28    30   ar
    33    24    22   ar
    34    14     2    1
    35    14    12   ar
    36     2    25    1
    37     2    36    1
    38    68    67    1
    39    18    19    1
    40    18    20   ar
    41    25    34   ar
    42    30    31    1
    43    30    32   ar
    44    10    12   ar
    45    10    11    1
    46    22    20   ar
    47    22    23    1
    48    58    67   ar
    49    58    59   ar
    50    12    13    1
    51    20    21    1
    52    67    65   ar
    53    34    32   ar
    54    34    35    1
    55    32    33    1
    56    60    59    1
    57    46    45    1
    58    59    61   ar
    59    36    45   ar
    60    36    37   ar
    61    65    66    1
    62    65    63   ar
    63    45    43   ar
    64    61    63   ar
    65    61    62    1
    66    38    37    1
    67    63    64    1
    68    37    39   ar
    69    43    44    1
    70    43    41   ar
    71    39    41   ar
    72    39    40    1
    73    41    42    1
