@<TRIPOS>MOLECULE
2,3,4
 74 75 0 0 0
SMALL
GASTEIGER

@<TRIPOS>ATOM
      1 CL          5.0624    7.1240    8.8991 Cl      1  UNL1        0.0000
      2 P           0.9824    6.2760    7.2094 P.3     1  UNL1        0.0000
      3 P           4.3316    3.3117    6.6714 P.3     1  UNL1        0.0000
      4 SI          3.9675    6.1917    7.3635 Si      1  UNL1        0.0000
      5 N           3.2868    7.5228    6.4424 N.pl3   1  UNL1        0.0000
      6 N           5.1122    5.8631    6.0745 N.pl3   1  UNL1        0.0000
      7 C           3.8022    7.5643    5.1623 C.ar    1  UNL1        0.0000
      8 C           3.4377    8.4239    4.1440 C.ar    1  UNL1        0.0000
      9 H           2.6693    9.1683    4.3027 H       1  UNL1        0.0000
     10 C           4.0667    8.3314    2.9086 C.ar    1  UNL1        0.0000
     11 H           3.7733    8.9999    2.1125 H       1  UNL1        0.0000
     12 C           5.0617    7.3985    2.6975 C.ar    1  UNL1        0.0000
     13 H           5.5471    7.3322    1.7349 H       1  UNL1        0.0000
     14 C           5.4565    6.5440    3.7200 C.ar    1  UNL1        0.0000
     15 H           6.2488    5.8289    3.5459 H       1  UNL1        0.0000
     16 C           4.8337    6.6185    4.9509 C.ar    1  UNL1        0.0000
     17 C           1.9591    7.8584    6.8272 C.3     1  UNL1        0.0000
     18 H           1.4510    8.4760    6.0859 H       1  UNL1        0.0000
     19 H           2.0202    8.4213    7.7661 H       1  UNL1        0.0000
     20 C           5.6459    4.5433    6.0711 C.3     1  UNL1        0.0000
     21 H           6.4832    4.5001    6.7791 H       1  UNL1        0.0000
     22 H           6.0180    4.2664    5.0852 H       1  UNL1        0.0000
     23 C          -0.2286    6.2179    5.7514 C.3     1  UNL1        0.0000
     24 C           0.6919    6.2293    4.5240 C.3     1  UNL1        0.0000
     25 H           0.1665    5.8480    3.6499 H       1  UNL1        0.0000
     26 H           1.5628    5.5907    4.7062 H       1  UNL1        0.0000
     27 H           1.0523    7.2261    4.2870 H       1  UNL1        0.0000
     28 C          -1.2157    7.3798    5.6963 C.3     1  UNL1        0.0000
     29 H          -1.6949    7.3997    4.7177 H       1  UNL1        0.0000
     30 H          -0.7232    8.3380    5.8471 H       1  UNL1        0.0000
     31 H          -1.9958    7.2654    6.4458 H       1  UNL1        0.0000
     32 C          -0.9918    4.8941    5.7466 C.3     1  UNL1        0.0000
     33 H          -1.6169    4.8360    4.8561 H       1  UNL1        0.0000
     34 H          -1.6342    4.7873    6.6153 H       1  UNL1        0.0000
     35 H          -0.2934    4.0585    5.7269 H       1  UNL1        0.0000
     36 C           0.1371    6.6785    8.8511 C.3     1  UNL1        0.0000
     37 C          -0.4221    8.0911    9.0003 C.3     1  UNL1        0.0000
     38 H          -0.8458    8.1981    9.9988 H       1  UNL1        0.0000
     39 H          -1.2104    8.2897    8.2806 H       1  UNL1        0.0000
     40 H           0.3480    8.8494    8.8877 H       1  UNL1        0.0000
     41 C          -0.9728    5.6593    9.1057 C.3     1  UNL1        0.0000
     42 H          -1.2740    5.6920   10.1522 H       1  UNL1        0.0000
     43 H          -0.6235    4.6511    8.8864 H       1  UNL1        0.0000
     44 H          -1.8512    5.8718    8.5009 H       1  UNL1        0.0000
     45 C           1.2564    6.4458    9.8733 C.3     1  UNL1        0.0000
     46 H           0.8750    6.5490   10.8879 H       1  UNL1        0.0000
     47 H           2.0723    7.1549    9.7423 H       1  UNL1        0.0000
     48 H           1.6642    5.4320    9.7584 H       1  UNL1        0.0000
     49 C           4.0918    2.2406    5.1199 C.3     1  UNL1        0.0000
     50 C           5.3630    1.7736    4.4120 C.3     1  UNL1        0.0000
     51 H           5.0801    1.1296    3.5793 H       1  UNL1        0.0000
     52 H           6.0078    1.2020    5.0726 H       1  UNL1        0.0000
     53 H           5.9353    2.6003    4.0000 H       1  UNL1        0.0000
     54 C           3.3021    3.1786    4.1998 C.3     1  UNL1        0.0000
     55 H           3.0879    2.6940    3.2483 H       1  UNL1        0.0000
     56 H           3.8548    4.0962    3.9954 H       1  UNL1        0.0000
     57 H           2.3524    3.4408    4.6764 H       1  UNL1        0.0000
     58 C           3.2280    1.0208    5.4377 C.3     1  UNL1        0.0000
     59 H           2.7787    0.6387    4.5218 H       1  UNL1        0.0000
     60 H           2.4255    1.2801    6.1251 H       1  UNL1        0.0000
     61 H           3.8214    0.2210    5.8731 H       1  UNL1        0.0000
     62 C           5.1962    2.3854    8.0728 C.3     1  UNL1        0.0000
     63 C           5.3448    3.4424    9.1724 C.3     1  UNL1        0.0000
     64 H           5.7600    2.9923   10.0728 H       1  UNL1        0.0000
     65 H           4.3642    3.8611    9.4206 H       1  UNL1        0.0000
     66 H           5.9950    4.2619    8.8758 H       1  UNL1        0.0000
     67 C           4.2587    1.3027    8.6085 C.3     1  UNL1        0.0000
     68 H           4.6212    0.9457    9.5716 H       1  UNL1        0.0000
     69 H           4.1956    0.4502    7.9396 H       1  UNL1        0.0000
     70 H           3.2575    1.7101    8.7534 H       1  UNL1        0.0000
     71 C           6.5518    1.7803    7.7209 C.3     1  UNL1        0.0000
     72 H           7.0675    1.4916    8.6363 H       1  UNL1        0.0000
     73 H           7.1858    2.4842    7.1868 H       1  UNL1        0.0000
     74 H           6.4348    0.8855    7.1139 H       1  UNL1        0.0000
@<TRIPOS>BOND
     1    13    12    1
     2    11    10    1
     3    12    10   ar
     4    12    14   ar
     5    10     8   ar
     6    55    54    1
     7    15    14    1
     8    51    50    1
     9    25    24    1
    10    14    16   ar
    11    56    54    1
    12    53    50    1
    13     8     9    1
    14     8     7   ar
    15    54    57    1
    16    54    49    1
    17    27    24    1
    18    50    52    1
    19    50    49    1
    20    59    58    1
    21    24    26    1
    22    24    23    1
    23    29    28    1
    24    33    32    1
    25    16     7   ar
    26    16     6    1
    27    22    20    1
    28    49    58    1
    29    49     3    1
    30     7     5    1
    31    58    61    1
    32    58    60    1
    33    28    23    1
    34    28    30    1
    35    28    31    1
    36    35    32    1
    37    32    23    1
    38    32    34    1
    39    23     2    1
    40    20     6    1
    41    20     3    1
    42    20    21    1
    43     6     4    1
    44    18    17    1
    45     5    17    1
    46     5     4    1
    47     3    62    1
    48    17     2    1
    49    17    19    1
    50    74    71    1
    51    73    71    1
    52     2    36    1
    53     4     1    1
    54    71    62    1
    55    71    72    1
    56    69    67    1
    57    62    67    1
    58    62    63    1
    59    39    37    1
    60    44    41    1
    61    67    70    1
    62    67    68    1
    63    36    37    1
    64    36    41    1
    65    36    45    1
    66    66    63    1
    67    43    41    1
    68    40    37    1
    69    37    38    1
    70    41    42    1
    71    63    65    1
    72    63    64    1
    73    47    45    1
    74    48    45    1
    75    45    46    1
