@<TRIPOS>MOLECULE
1,2,34
 58 62 0 0 0
SMALL
GASTEIGER

@<TRIPOS>ATOM
      1 N           8.6075    7.7160    5.1037 N.3     1  UNL1        0.0000
      2 N           8.7437    8.9809    5.6774 N.pl3   1  UNL1        0.0000
      3 B           9.7045    6.8821    4.4290 B       1  UNL1        0.0000
      4 C           9.1900   10.0529    4.8548 C.ar    1  UNL1        0.0000
      5 C           8.5158   10.2659    3.6503 C.ar    1  UNL1        0.0000
      6 C           8.9342   11.2483    2.7705 C.ar    1  UNL1        0.0000
      7 C          10.0222   12.0462    3.0885 C.ar    1  UNL1        0.0000
      8 C          10.6583   11.8771    4.3072 C.ar    1  UNL1        0.0000
      9 C          10.2471   10.8974    5.1941 C.ar    1  UNL1        0.0000
     10 C           8.8640    9.1011    7.0812 C.ar    1  UNL1        0.0000
     11 C           9.1536    7.9919    7.8775 C.ar    1  UNL1        0.0000
     12 C           9.2189    8.1160    9.2521 C.ar    1  UNL1        0.0000
     13 C           8.9844    9.3370    9.8633 C.ar    1  UNL1        0.0000
     14 C           8.6787   10.4388    9.0814 C.ar    1  UNL1        0.0000
     15 C           8.6143   10.3291    7.7043 C.ar    1  UNL1        0.0000
     16 C           9.0226    5.5743    3.6849 C.ar    1  UNL1        0.0000
     17 C           7.6841    5.2286    3.7430 C.ar    1  UNL1        0.0000
     18 C           7.1384    4.1273    3.0936 C.ar    1  UNL1        0.0000
     19 C           7.9491    3.3226    2.3053 C.ar    1  UNL1        0.0000
     20 C           9.2949    3.6555    2.1806 C.ar    1  UNL1        0.0000
     21 C           9.7983    4.7593    2.8584 C.ar    1  UNL1        0.0000
     22 C          10.8768    6.3771    5.4795 C.ar    1  UNL1        0.0000
     23 C          11.6967    7.3058    6.1144 C.ar    1  UNL1        0.0000
     24 C          12.6718    6.9874    7.0493 C.ar    1  UNL1        0.0000
     25 C          12.8786    5.6590    7.3940 C.ar    1  UNL1        0.0000
     26 C          12.0909    4.6928    6.7854 C.ar    1  UNL1        0.0000
     27 C          11.1189    5.0580    5.8570 C.ar    1  UNL1        0.0000
     28 C          10.3089    7.6922    3.1213 C.ar    1  UNL1        0.0000
     29 C           9.3532    8.0317    2.1706 C.ar    1  UNL1        0.0000
     30 C           9.6423    8.6647    0.9734 C.ar    1  UNL1        0.0000
     31 C          10.9618    8.9985    0.6887 C.ar    1  UNL1        0.0000
     32 C          11.9520    8.6651    1.6030 C.ar    1  UNL1        0.0000
     33 C          11.6191    8.0093    2.7876 C.ar    1  UNL1        0.0000
     34 F           6.7958    5.9973    4.4493 F       1  UNL1        0.0000
     35 F           5.8349    3.8557    3.2341 F       1  UNL1        0.0000
     36 F           7.4482    2.2608    1.6702 F       1  UNL1        0.0000
     37 F          10.0921    2.9154    1.4059 F       1  UNL1        0.0000
     38 F          11.1023    5.0303    2.7012 F       1  UNL1        0.0000
     39 F          11.5450    8.6078    5.8328 F       1  UNL1        0.0000
     40 F          13.3965    7.9567    7.6230 F       1  UNL1        0.0000
     41 F          13.8034    5.3201    8.2971 F       1  UNL1        0.0000
     42 F          12.2554    3.4023    7.1015 F       1  UNL1        0.0000
     43 F          10.4037    4.0381    5.3506 F       1  UNL1        0.0000
     44 F           8.0454    7.7381    2.4383 F       1  UNL1        0.0000
     45 F           8.6661    8.9743    0.1078 F       1  UNL1        0.0000
     46 F          11.2676    9.6323   -0.4474 F       1  UNL1        0.0000
     47 F          13.2252    8.9734    1.3390 F       1  UNL1        0.0000
     48 F          12.6324    7.6810    3.5957 F       1  UNL1        0.0000
     49 H           7.6233    9.6727    3.4536 H       1  UNL1        0.0000
     50 H           8.4001   11.4013    1.8444 H       1  UNL1        0.0000
     51 H          10.3574   12.8059    2.4001 H       1  UNL1        0.0000
     52 H          11.4890   12.5120    4.5738 H       1  UNL1        0.0000
     53 H          10.7540   10.7877    6.1384 H       1  UNL1        0.0000
     54 H           9.3266    7.0381    7.4091 H       1  UNL1        0.0000
     55 H           9.4606    7.2501    9.8497 H       1  UNL1        0.0000
     56 H           9.0385    9.4310   10.9366 H       1  UNL1        0.0000
     57 H           8.4876   11.3953    9.5454 H       1  UNL1        0.0000
     58 H           8.3775   11.2039    7.1132 H       1  UNL1        0.0000
@<TRIPOS>BOND
     1    46    31    1
     2    45    30    1
     3    31    30   ar
     4    31    32   ar
     5    30    29   ar
     6    47    32    1
     7    37    20    1
     8    32    33   ar
     9    36    19    1
    10    50     6    1
    11    29    44    1
    12    29    28   ar
    13    20    19   ar
    14    20    21   ar
    15    19    18   ar
    16    51     7    1
    17    38    21    1
    18     6     7   ar
    19     6     5   ar
    20    33    28   ar
    21    33    48    1
    22    21    16   ar
    23     7     8   ar
    24    18    35    1
    25    18    17   ar
    26    28     3    1
    27    49     5    1
    28     5     4   ar
    29    16    17   ar
    30    16     3    1
    31    17    34    1
    32     8    52    1
    33     8     9   ar
    34     3     1    1
    35     3    22    1
    36     4     9   ar
    37     4     2    1
    38     1     2    1
    39     9    53    1
    40    43    27    1
    41    22    27   ar
    42    22    23   ar
    43     2    10    1
    44    39    23    1
    45    27    26   ar
    46    23    24   ar
    47    26    42    1
    48    26    25   ar
    49    24    25   ar
    50    24    40    1
    51    10    15   ar
    52    10    11   ar
    53    58    15    1
    54    25    41    1
    55    54    11    1
    56    15    14   ar
    57    11    12   ar
    58    14    57    1
    59    14    13   ar
    60    12    55    1
    61    12    13   ar
    62    13    56    1
