@<TRIPOS>MOLECULE
2,3
 36 37 0 0 0
SMALL
GASTEIGER

@<TRIPOS>ATOM
      1 O          12.2855   12.2528   12.0971 O.3     1  UNL1       -0.4951
      2 O           5.6465   11.8697   16.5768 O.2     1  UNL1       -0.2875
      3 N           8.3614   12.2225   16.0391 N.pl3   1  UNL1       -0.2376
      4 C           9.4341   12.2736   15.1353 C.ar    1  UNL1        0.0491
      5 C           8.5123   11.8400   17.2837 C.3     1  UNL1        0.0989
      6 C           9.5789   13.4005   14.3213 C.ar    1  UNL1       -0.0356
      7 H           8.9361   14.2611   14.4932 H       1  UNL1        0.0638
      8 C          11.3496   12.3393   13.0861 C.ar    1  UNL1        0.1202
      9 C          10.2934   11.1906   14.9242 C.ar    1  UNL1       -0.0356
     10 H          10.1817   10.2965   15.5196 H       1  UNL1        0.0638
     11 C           5.0226   11.5821   18.8227 C.ar    1  UNL1        0.0214
     12 C           6.0738   11.7141   17.7770 C.2     1  UNL1        0.1843
     13 C           5.1875   12.0750   20.1145 C.ar    1  UNL1       -0.0509
     14 H           6.1161   12.5469   20.3980 H       1  UNL1        0.0625
     15 C           7.4101   11.6493   18.1459 C.2     1  UNL1       -0.0096
     16 H           7.6349   11.4184   19.1759 H       1  UNL1        0.0633
     17 C          11.2354   11.2267   13.9191 C.ar    1  UNL1       -0.0182
     18 H          11.8869   10.3852   13.7425 H       1  UNL1        0.0655
     19 C          10.5191   13.4339   13.3073 C.ar    1  UNL1       -0.0182
     20 H          10.5883   14.3171   12.6916 H       1  UNL1        0.0655
     21 C           2.7662   10.9395   19.3785 C.ar    1  UNL1       -0.0611
     22 H           1.8218   10.5050   19.0865 H       1  UNL1        0.0618
     23 C           4.1502   11.9977   21.0262 C.ar    1  UNL1       -0.0611
     24 H           4.2829   12.3904   22.0240 H       1  UNL1        0.0618
     25 C           3.7986   11.0212   18.4642 C.ar    1  UNL1       -0.0509
     26 H           3.6745   10.6572   17.4553 H       1  UNL1        0.0625
     27 C           2.9399   11.4294   20.6628 C.ar    1  UNL1       -0.0617
     28 H           2.1321   11.3750   21.3782 H       1  UNL1        0.0618
     29 C           9.8731   11.6533   17.9111 C.3     1  UNL1       -0.0358
     30 H          10.0951   10.5927   18.0206 H       1  UNL1        0.0255
     31 H           9.8802   12.0965   18.9047 H       1  UNL1        0.0255
     32 H          10.6520   12.1152   17.3097 H       1  UNL1        0.0255
     33 C          12.3331   13.2771   11.1351 C.3     1  UNL1        0.0788
     34 H          11.3683   13.3945   10.6309 H       1  UNL1        0.0660
     35 H          13.0836   12.9654   10.4101 H       1  UNL1        0.0660
     36 H          12.6352   14.2328   11.5760 H       1  UNL1        0.0660
@<TRIPOS>BOND
     1    35    33    1
     2    34    33    1
     3    33    36    1
     4    33     1    1
     5     1     8    1
     6    20    19    1
     7     8    19   ar
     8     8    17   ar
     9    19     6   ar
    10    18    17    1
    11    17     9   ar
    12     6     7    1
    13     6     4   ar
    14     9     4   ar
    15     9    10    1
    16     4     3    1
    17     3     5    1
    18     2    12    1
    19     5    29    1
    20     5    15    1
    21    32    29    1
    22    26    25    1
    23    12    15    2
    24    12    11    1
    25    29    30    1
    26    29    31    1
    27    15    16    1
    28    25    11   ar
    29    25    21   ar
    30    11    13   ar
    31    22    21    1
    32    21    27   ar
    33    13    14    1
    34    13    23   ar
    35    27    23   ar
    36    27    28    1
    37    23    24    1
