@<TRIPOS>MOLECULE
2,3
 36 37 0 0 0
SMALL
GASTEIGER

@<TRIPOS>ATOM
      1 O           0.3871   12.4512   17.4359 O.3     1  UNL1       -0.4951
      2 O           7.2205   11.7369   13.3301 O.2     1  UNL1       -0.2875
      3 N           4.5454   12.3337   13.7402 N.pl3   1  UNL1       -0.2376
      4 C           5.5280   11.6583   11.6758 C.2     1  UNL1       -0.0096
      5 H           5.3318   11.4386   10.6376 H       1  UNL1        0.0633
      6 C           2.5937   11.3079   14.8075 C.ar    1  UNL1       -0.0356
      7 H           2.7686   10.3939   14.2587 H       1  UNL1        0.0638
      8 C           6.8445   11.5957   12.1146 C.2     1  UNL1        0.1843
      9 C           4.4152   11.9420   12.4936 C.3     1  UNL1        0.0989
     10 C           7.9216   11.3282   11.1223 C.ar    1  UNL1        0.0214
     11 C           3.2075   13.5678   15.3387 C.ar    1  UNL1       -0.0356
     12 H           3.8412   14.4337   15.1720 H       1  UNL1        0.0638
     13 C           3.0646   11.8311   11.8274 C.3     1  UNL1       -0.0358
     14 H           2.7877   10.7846   11.7094 H       1  UNL1        0.0255
     15 H           3.1121   12.2739   10.8346 H       1  UNL1        0.0255
     16 H           2.2944   12.3336   12.4073 H       1  UNL1        0.0255
     17 C           2.1954   13.6221   16.2809 C.ar    1  UNL1       -0.0182
     18 H           2.0548   14.5332   16.8399 H       1  UNL1        0.0655
     19 C           9.0057   10.5414   11.5013 C.ar    1  UNL1       -0.0509
     20 H           9.0096   10.1109   12.4911 H       1  UNL1        0.0625
     21 C           1.3854   12.5144   16.5071 C.ar    1  UNL1        0.1202
     22 C           1.5889   11.3614   15.7485 C.ar    1  UNL1       -0.0182
     23 H           0.9536   10.5082   15.9285 H       1  UNL1        0.0655
     24 C           3.4325   12.4074   14.5974 C.ar    1  UNL1        0.0491
     25 C           7.9121   11.9061    9.8560 C.ar    1  UNL1       -0.0509
     26 H           7.0926   12.5455    9.5638 H       1  UNL1        0.0625
     27 C          10.0521   10.3198   10.6264 C.ar    1  UNL1       -0.0611
     28 H          10.8876    9.7065   10.9284 H       1  UNL1        0.0618
     29 C          10.0358   10.8975    9.3675 C.ar    1  UNL1       -0.0617
     30 H          10.8576   10.7342    8.6857 H       1  UNL1        0.0618
     31 C           8.9668   11.6926    8.9867 C.ar    1  UNL1       -0.0611
     32 H           8.9583   12.1528    8.0089 H       1  UNL1        0.0618
     33 C           0.2469   13.5245   18.3338 C.3     1  UNL1        0.0788
     34 H           1.1755   13.7066   18.8845 H       1  UNL1        0.0660
     35 H          -0.5346   13.2256   19.0310 H       1  UNL1        0.0660
     36 H          -0.0613   14.4422   17.8220 H       1  UNL1        0.0660
@<TRIPOS>BOND
     1    32    31    1
     2    30    29    1
     3    31    29   ar
     4    31    25   ar
     5    29    27   ar
     6    26    25    1
     7    25    10   ar
     8    27    28    1
     9    27    19   ar
    10     5     4    1
    11    15    13    1
    12    10    19   ar
    13    10     8    1
    14    19    20    1
    15     4     8    2
    16     4     9    1
    17    14    13    1
    18    13    16    1
    19    13     9    1
    20     8     2    1
    21     9     3    1
    22     3    24    1
    23     7     6    1
    24    24     6   ar
    25    24    11   ar
    26     6    22   ar
    27    12    11    1
    28    11    17   ar
    29    22    23    1
    30    22    21   ar
    31    17    21   ar
    32    17    18    1
    33    21     1    1
    34     1    33    1
    35    36    33    1
    36    33    34    1
    37    33    35    1
