@<TRIPOS>MOLECULE
1,4
 56 58 0 0 0
SMALL
GASTEIGER

@<TRIPOS>ATOM
      1 N          14.5700    8.6532    8.1964 N.pl3   1  UNL1       -0.0846
      2 N          15.7057    8.8083    7.3903 N.pl3   1  UNL1       -0.1973
      3 N          13.1847    8.9854    6.3511 N.2     1  UNL1       -0.1927
      4 O          12.4343    8.6121    8.5514 O.2     1  UNL1       -0.2442
      5 C          16.3749    7.6618    6.9928 C.ar    1  UNL1        0.0551
      6 C          15.7524    6.4130    7.1120 C.ar    1  UNL1       -0.0387
      7 C          16.4362    5.2578    6.7908 C.ar    1  UNL1       -0.0599
      8 C          17.7513    5.3122    6.3569 C.ar    1  UNL1       -0.0616
      9 C          18.3848    6.5419    6.2680 C.ar    1  UNL1       -0.0599
     10 C          17.7158    7.7056    6.5907 C.ar    1  UNL1       -0.0387
     11 C          15.8911   10.0694    6.8262 C.ar    1  UNL1        0.0551
     12 C          16.4347   10.2587    5.5553 C.ar    1  UNL1       -0.0387
     13 C          16.6151   11.5365    5.0632 C.ar    1  UNL1       -0.0599
     14 C          16.2455   12.6429    5.8107 C.ar    1  UNL1       -0.0616
     15 C          15.6671   12.4585    7.0561 C.ar    1  UNL1       -0.0599
     16 C          15.4907   11.1870    7.5633 C.ar    1  UNL1       -0.0387
     17 C          13.3546    8.7570    7.5928 C.2     1  UNL1        0.3725
     18 C          11.9529    9.0517    5.7137 C.ar    1  UNL1        0.0760
     19 C          11.2489    7.8767    5.3950 C.ar    1  UNL1       -0.0190
     20 C          10.0757    7.9761    4.6662 C.ar    1  UNL1       -0.0563
     21 C           9.5960    9.2042    4.2472 C.ar    1  UNL1       -0.0611
     22 C          10.3102   10.3516    4.5328 C.ar    1  UNL1       -0.0563
     23 C          11.4879   10.2953    5.2603 C.ar    1  UNL1       -0.0190
     24 C          11.8400    6.5412    5.7902 C.3     1  UNL1       -0.0195
     25 C          10.8370    5.3900    5.7687 C.3     1  UNL1       -0.0586
     26 C          13.0149    6.2316    4.8549 C.3     1  UNL1       -0.0586
     27 C          12.3116   11.5386    5.5012 C.3     1  UNL1       -0.0195
     28 C          13.1109   11.8567    4.2349 C.3     1  UNL1       -0.0586
     29 C          11.4689   12.7438    5.9172 C.3     1  UNL1       -0.0586
     30 H          14.7305    6.3728    7.4649 H       1  UNL1        0.0637
     31 H          15.9372    4.3033    6.8759 H       1  UNL1        0.0618
     32 H          18.2804    4.4074    6.0993 H       1  UNL1        0.0618
     33 H          19.4169    6.5946    5.9526 H       1  UNL1        0.0618
     34 H          18.2314    8.6532    6.5446 H       1  UNL1        0.0637
     35 H          16.6878    9.4055    4.9453 H       1  UNL1        0.0637
     36 H          17.0340   11.6698    4.0762 H       1  UNL1        0.0618
     37 H          16.3910   13.6382    5.4181 H       1  UNL1        0.0618
     38 H          15.3518   13.3133    7.6376 H       1  UNL1        0.0618
     39 H          15.0261   11.0311    8.5300 H       1  UNL1        0.0637
     40 H           9.5206    7.0870    4.4099 H       1  UNL1        0.0621
     41 H           8.6761    9.2619    3.6824 H       1  UNL1        0.0618
     42 H           9.9454   11.3035    4.1760 H       1  UNL1        0.0621
     43 H          12.2288    6.6338    6.8129 H       1  UNL1        0.0344
     44 H          10.5405    5.1524    4.7491 H       1  UNL1        0.0235
     45 H           9.9490    5.6398    6.3450 H       1  UNL1        0.0235
     46 H          11.2883    4.5000    6.2018 H       1  UNL1        0.0235
     47 H          13.4864    5.2875    5.1231 H       1  UNL1        0.0235
     48 H          13.7570    7.0237    4.9172 H       1  UNL1        0.0235
     49 H          12.6642    6.1649    3.8263 H       1  UNL1        0.0235
     50 H          13.0254   11.3180    6.3009 H       1  UNL1        0.0344
     51 H          13.7321   12.7369    4.3883 H       1  UNL1        0.0235
     52 H          13.7556   11.0178    3.9866 H       1  UNL1        0.0235
     53 H          12.4393   12.0408    3.3983 H       1  UNL1        0.0235
     54 H          10.8129   12.4852    6.7451 H       1  UNL1        0.0235
     55 H          10.8590   13.1013    5.0907 H       1  UNL1        0.0235
     56 H          12.1189   13.5592    6.2298 H       1  UNL1        0.0235
@<TRIPOS>BOND
     1    53    28    1
     2    41    21    1
     3    49    26    1
     4    52    28    1
     5    36    13    1
     6    42    22    1
     7    28    51    1
     8    28    27    1
     9    21    22   ar
    10    21    20   ar
    11    40    20    1
    12    22    23   ar
    13    20    19   ar
    14    44    25    1
    15    26    48    1
    16    26    47    1
    17    26    24    1
    18    35    12    1
    19    13    12   ar
    20    13    14   ar
    21    55    29    1
    22    23    27    1
    23    23    18   ar
    24    19    18   ar
    25    19    24    1
    26    37    14    1
    27    27    29    1
    28    27    50    1
    29    12    11   ar
    30    18     3    1
    31    25    24    1
    32    25    46    1
    33    25    45    1
    34    24    43    1
    35    14    15   ar
    36    29    56    1
    37    29    54    1
    38    33     9    1
    39    32     8    1
    40     9     8   ar
    41     9    10   ar
    42     3    17    2
    43     8     7   ar
    44    34    10    1
    45    10     5   ar
    46     7    31    1
    47     7     6   ar
    48    11     2    1
    49    11    16   ar
    50     5     6   ar
    51     5     2    1
    52    15    16   ar
    53    15    38    1
    54     6    30    1
    55     2     1    1
    56    16    39    1
    57    17     1    1
    58    17     4    1
