@<TRIPOS>MOLECULE
1,2
 20 20 0 0 0
SMALL
GASTEIGER

@<TRIPOS>ATOM
      1 O          -0.4105    0.3688    4.7952 O.3     1  UNL1       -0.2254
      2 N          -0.9705    1.7589    6.7887 N.pl3   1  UNL1       -0.2420
      3 C           0.6546    0.4156    5.6608 C.3     1  UNL1        0.1276
      4 C           0.2054    1.1459    6.9184 C.3     1  UNL1        0.1317
      5 C           0.9616    1.2273    8.0824 C.2     1  UNL1       -0.0538
      6 C           0.4808    1.9754    9.1422 C.2     1  UNL1       -0.0622
      7 C          -0.7354    2.6282    8.9954 C.2     1  UNL1       -0.0466
      8 C          -1.4233    2.4888    7.8045 C.2     1  UNL1        0.0126
      9 C           1.1576   -1.0075    5.9735 C.3     1  UNL1       -0.0306
     10 C           1.7972    1.2497    5.0353 C.3     1  UNL1       -0.0306
     11 H           1.9074    0.7145    8.1542 H       1  UNL1        0.0596
     12 H           1.0440    2.0538   10.0599 H       1  UNL1        0.0616
     13 H          -1.1422    3.2331    9.7899 H       1  UNL1        0.0630
     14 H          -2.3691    2.9893    7.6492 H       1  UNL1        0.0797
     15 H           2.0897   -0.9832    6.5310 H       1  UNL1        0.0259
     16 H           1.3227   -1.5287    5.0329 H       1  UNL1        0.0259
     17 H           0.4118   -1.5541    6.5467 H       1  UNL1        0.0259
     18 H           1.4424    2.2668    4.8570 H       1  UNL1        0.0259
     19 H           2.0794    0.8037    4.0833 H       1  UNL1        0.0259
     20 H           2.6651    1.2820    5.6897 H       1  UNL1        0.0259
@<TRIPOS>BOND
     1    19    10    1
     2     1     3    1
     3    18    10    1
     4    16     9    1
     5    10     3    1
     6    10    20    1
     7     3     9    1
     8     3     4    1
     9     9    15    1
    10     9    17    1
    11     2     4    1
    12     2     8    1
    13     4     5    1
    14    14     8    1
    15     8     7    2
    16     5    11    1
    17     5     6    2
    18     7     6    1
    19     7    13    1
    20     6    12    1
