@<TRIPOS>MOLECULE
1,2
 14 14 0 0 0
SMALL
GASTEIGER

@<TRIPOS>ATOM
      1 O           2.8078    7.9559    9.1863 O.3     1  LYS1       -0.2284
      2 N           2.8691    7.1567    6.7771 N.pl3   1  LYS1       -0.2429
      3 CE          3.0695    6.7656    5.5248 C.3     1  LYS1        0.0844
      4 HE          3.9335    7.1960    5.0325 H       1  LYS1        0.0584
      5 CD          2.2341    5.8700    4.8785 C.2     1  LYS1       -0.0600
      6 HD          2.4273    5.5765    3.8589 H       1  LYS1        0.0592
      7 CG          1.1398    5.3664    5.5710 C.2     1  LYS1       -0.0623
      8 HG          0.4631    4.6700    5.0977 H       1  LYS1        0.0616
      9 CB          0.9302    5.7739    6.8753 C.2     1  LYS1       -0.0411
     10 HB          0.0906    5.4084    7.4469 H       1  LYS1        0.0634
     11 CA          1.8236    6.6797    7.4453 C.2     1  LYS1        0.0547
     12 C           1.7077    7.2124    8.8553 C.3     1  LYS1        0.1221
     13 H1          0.7825    7.8266    8.9029 H       1  LYS1        0.0655
     14 H2          1.5820    6.3601    9.5560 H       1  LYS1        0.0655
@<TRIPOS>BOND
     1     6     5    1
     2     5     3    1
     3     5     7    2
     4     4     3    1
     5     8     7    1
     6     3     2    1
     7     7     9    1
     8     2    11    1
     9     9    11    2
    10     9    10    1
    11    11    12    1
    12    12    13    1
    13    12     1    1
    14    12    14    1
