@<TRIPOS>MOLECULE
1,2
 14 14 0 0 0
SMALL
GASTEIGER

@<TRIPOS>ATOM
      1 O           1.6633    2.8678    6.0624 O.3     1  LYS1       -0.2320
      2 N           3.1290    1.1657    7.3142 N.pl3   1  LYS1       -0.2426
      3 C           1.0010    2.2010    7.0574 C.3     1  LYS1        0.1118
      4 H1          0.2520    1.4988    6.6348 H       1  LYS1        0.0618
      5 H2          0.4634    2.9111    7.7210 H       1  LYS1        0.0618
      6 CA          1.9402    1.3496    7.8754 C.3     1  LYS1        0.1261
      7 CB          1.6107    0.7825    9.1054 C.2     1  LYS1       -0.0543
      8 HB          0.6491    0.9818    9.5543 H       1  LYS1        0.0595
      9 CG          2.5335   -0.0361    9.7284 C.2     1  LYS1       -0.0622
     10 HG          2.3076   -0.4948   10.6809 H       1  LYS1        0.0616
     11 CD          3.7569   -0.2618    9.1087 C.2     1  LYS1       -0.0466
     12 HD          4.4931   -0.9107    9.5564 H       1  LYS1        0.0630
     13 CE          4.0099    0.3698    7.9037 C.2     1  LYS1        0.0126
     14 HE          4.9508    0.2496    7.3798 H       1  LYS1        0.0797
@<TRIPOS>BOND
     1     1     3    1
     2     4     3    1
     3     3     5    1
     4     3     6    1
     5     2     6    1
     6     2    13    1
     7    14    13    1
     8     6     7    1
     9    13    11    2
    10     7     8    1
    11     7     9    2
    12    11    12    1
    13    11     9    1
    14     9    10    1
