@<TRIPOS>MOLECULE
1,2
 14 14 0 0 0
SMALL
GASTEIGER

@<TRIPOS>ATOM
      1 O          11.6722    7.7491    1.2019 O.3     1  LYS1       -0.2320
      2 N           9.7339    6.0996    0.9774 N.pl3   1  LYS1       -0.2426
      3 C          11.7257    6.7424    2.1275 C.3     1  LYS1        0.1118
      4 H1         11.6793    7.1489    3.1606 H       1  LYS1        0.0618
      5 H2         12.6771    6.1767    2.0344 H       1  LYS1        0.0618
      6 CA         10.5694    5.7842    1.9626 C.3     1  LYS1        0.1261
      7 CB         10.3699    4.6743    2.7824 C.2     1  LYS1       -0.0543
      8 HB         11.0740    4.4514    3.5696 H       1  LYS1        0.0595
      9 CG          9.2519    3.8885    2.5760 C.2     1  LYS1       -0.0622
     10 HG          9.0627    3.0262    3.1984 H       1  LYS1        0.0616
     11 CD          8.3690    4.2363    1.5611 C.2     1  LYS1       -0.0466
     12 HD          7.4778    3.6566    1.3794 H       1  LYS1        0.0630
     13 CE          8.6540    5.3501    0.7896 C.2     1  LYS1        0.0126
     14 HE          7.9931    5.6644   -0.0088 H       1  LYS1        0.0797
@<TRIPOS>BOND
     1    14    13    1
     2    13     2    1
     3    13    11    2
     4     2     6    1
     5     1     3    1
     6    12    11    1
     7    11     9    1
     8     6     3    1
     9     6     7    1
    10     5     3    1
    11     3     4    1
    12     9     7    2
    13     9    10    1
    14     7     8    1
