@<TRIPOS>MOLECULE
1,2
 14 14 0 0 0
SMALL
GASTEIGER

@<TRIPOS>ATOM
      1 O           4.8248    1.4373    5.1839 O.3     1  LYS1       -0.2320
      2 N           4.2676    3.6385    6.3919 N.pl3   1  LYS1       -0.2426
      3 C           5.8325    2.3627    5.1348 C.3     1  LYS1        0.1118
      4 H1          5.9348    2.7868    4.1134 H       1  LYS1        0.0618
      5 H2          6.8051    1.9038    5.4117 H       1  LYS1        0.0618
      6 CA          5.5438    3.5315    6.0434 C.3     1  LYS1        0.1261
      7 CB          6.5123    4.4259    6.4965 C.2     1  LYS1       -0.0543
      8 HB          7.5449    4.3006    6.2061 H       1  LYS1        0.0595
      9 CG          6.1234    5.4643    7.3211 C.2     1  LYS1       -0.0622
     10 HG          6.8504    6.1709    7.6967 H       1  LYS1        0.0616
     11 CD          4.7805    5.5854    7.6574 C.2     1  LYS1       -0.0466
     12 HD          4.4383    6.3920    8.2868 H       1  LYS1        0.0630
     13 CE          3.8898    4.6487    7.1625 C.2     1  LYS1        0.0126
     14 HE          2.8311    4.6958    7.3893 H       1  LYS1        0.0797
@<TRIPOS>BOND
     1     4     3    1
     2     3     1    1
     3     3     5    1
     4     3     6    1
     5     6     2    1
     6     6     7    1
     7     8     7    1
     8     2    13    1
     9     7     9    2
    10    13    14    1
    11    13    11    2
    12     9    11    1
    13     9    10    1
    14    11    12    1
