@<TRIPOS>MOLECULE
1,2
 14 14 0 0 0
SMALL
GASTEIGER

@<TRIPOS>ATOM
      1 O           8.6263    8.1740   -0.4490 O.3     1  LYS1       -0.2320
      2 N          10.9900    7.9906   -1.4113 N.pl3   1  LYS1       -0.2426
      3 C           8.6414    8.0669   -1.8106 C.3     1  LYS1        0.1118
      4 H1          8.0606    8.8843   -2.2816 H       1  LYS1        0.0618
      5 H2          8.1766    7.1118   -2.1453 H       1  LYS1        0.0618
      6 CA         10.0541    8.1112   -2.3467 C.3     1  LYS1        0.1261
      7 CB         10.3645    8.2691   -3.6956 C.2     1  LYS1       -0.0543
      8 HB          9.5756    8.3530   -4.4270 H       1  LYS1        0.0595
      9 CG         11.6937    8.3353   -4.0658 C.2     1  LYS1       -0.0622
     10 HG         11.9692    8.4739   -5.1006 H       1  LYS1        0.0616
     11 CD         12.6682    8.2228   -3.0822 C.2     1  LYS1       -0.0466
     12 HD         13.7158    8.2744   -3.3323 H       1  LYS1        0.0630
     13 CE         12.2679    8.0430   -1.7700 C.2     1  LYS1        0.0126
     14 HE         12.9844    7.9307   -0.9659 H       1  LYS1        0.0797
@<TRIPOS>BOND
     1    10     9    1
     2     8     7    1
     3     9     7    2
     4     9    11    1
     5     7     6    1
     6    12    11    1
     7    11    13    2
     8     6     3    1
     9     6     2    1
    10     4     3    1
    11     5     3    1
    12     3     1    1
    13    13     2    1
    14    13    14    1
