@<TRIPOS>MOLECULE
1,2
 14 14 0 0 0
SMALL
GASTEIGER

@<TRIPOS>ATOM
      1 O           4.5405    9.2836    6.4143 O.3     1  LYS1       -0.2320
      2 N           5.4184    7.9166    8.3820 N.pl3   1  LYS1       -0.2426
      3 C           5.8882    9.4219    6.5926 C.3     1  LYS1        0.1118
      4 H1          6.1543   10.4739    6.8336 H       1  LYS1        0.0618
      5 H2          6.4394    9.1432    5.6687 H       1  LYS1        0.0618
      6 CA          6.3826    8.5648    7.7368 C.3     1  LYS1        0.1261
      7 CB          7.7220    8.4592    8.1078 C.2     1  LYS1       -0.0543
      8 HB          8.4806    8.9964    7.5586 H       1  LYS1        0.0595
      9 CG          8.0505    7.6664    9.1913 C.2     1  LYS1       -0.0622
     10 HG          9.0783    7.5685    9.5091 H       1  LYS1        0.0616
     11 CD          7.0351    7.0032    9.8693 C.2     1  LYS1       -0.0466
     12 HD          7.2539    6.3822   10.7238 H       1  LYS1        0.0630
     13 CE          5.7326    7.1611    9.4262 C.2     1  LYS1        0.0126
     14 HE          4.8983    6.6740    9.9177 H       1  LYS1        0.0797
@<TRIPOS>BOND
     1     5     3    1
     2     1     3    1
     3     3     4    1
     4     3     6    1
     5     8     7    1
     6     6     7    1
     7     6     2    1
     8     7     9    2
     9     2    13    1
    10     9    10    1
    11     9    11    1
    12    13    11    2
    13    13    14    1
    14    11    12    1
