@<TRIPOS>MOLECULE
2,3
 37 36 0 0 0
SMALL
GASTEIGER

@<TRIPOS>ATOM
      1 SI          3.7692    3.2353   -2.2014 Si      1  UNL1        0.0000
      2 O           2.6768    2.6136   -1.1006 O.3     1  UNL1        0.0000
      3 N           5.1147    3.1717   -1.1451 N.3     1  UNL1        0.0000
      4 C           6.4563    3.6377   -1.4550 C.3     1  UNL1        0.0000
      5 C           7.0329    4.3268   -0.2085 C.3     1  UNL1        0.0000
      6 H           6.5032    5.2560   -0.0097 H       1  UNL1        0.0000
      7 H           8.0859    4.5515   -0.3554 H       1  UNL1        0.0000
      8 H           6.9162    3.6643    0.6444 H       1  UNL1        0.0000
      9 C           6.5167    4.6320   -2.6189 C.3     1  UNL1        0.0000
     10 H           6.1048    4.1950   -3.5230 H       1  UNL1        0.0000
     11 H           7.5517    4.9079   -2.8072 H       1  UNL1        0.0000
     12 H           5.9619    5.5344   -2.3791 H       1  UNL1        0.0000
     13 C           7.3285    2.4226   -1.8079 C.3     1  UNL1        0.0000
     14 H           6.9038    1.9042   -2.6643 H       1  UNL1        0.0000
     15 H           7.3439    1.7380   -0.9624 H       1  UNL1        0.0000
     16 H           8.3432    2.7318   -2.0471 H       1  UNL1        0.0000
     17 C           1.3156    2.2136   -1.2449 C.3     1  UNL1        0.0000
     18 C           0.6228    2.5129    0.0914 C.3     1  UNL1        0.0000
     19 H           1.1085    1.9637    0.8955 H       1  UNL1        0.0000
     20 H          -0.4218    2.2176    0.0468 H       1  UNL1        0.0000
     21 H           0.6794    3.5788    0.3101 H       1  UNL1        0.0000
     22 C           1.2791    0.7111   -1.5374 C.3     1  UNL1        0.0000
     23 H           1.7574    0.1597   -0.7303 H       1  UNL1        0.0000
     24 H           1.8096    0.4969   -2.4623 H       1  UNL1        0.0000
     25 H           0.2517    0.3684   -1.6287 H       1  UNL1        0.0000
     26 C           0.6017    2.9765   -2.3591 C.3     1  UNL1        0.0000
     27 H           0.6242    4.0449   -2.1631 H       1  UNL1        0.0000
     28 H          -0.4356    2.6542   -2.4071 H       1  UNL1        0.0000
     29 H           1.0684    2.7828   -3.3200 H       1  UNL1        0.0000
     30 C           3.9232    2.1613   -3.7827 C.3     1  UNL1        0.0000
     31 H           2.9891    2.0906   -4.3336 H       1  UNL1        0.0000
     32 H           4.2413    1.1506   -3.5395 H       1  UNL1        0.0000
     33 H           4.6609    2.5797   -4.4611 H       1  UNL1        0.0000
     34 C           3.1625    4.9740   -2.7359 C.3     1  UNL1        0.0000
     35 H           2.4187    4.8938   -3.5208 H       1  UNL1        0.0000
     36 H           3.9723    5.5703   -3.1353 H       1  UNL1        0.0000
     37 H           2.7170    5.5308   -1.9160 H       1  UNL1        0.0000
@<TRIPOS>BOND
     1    33    30    1
     2    31    30    1
     3    30    32    1
     4    30     1    1
     5    10     9    1
     6    35    34    1
     7    29    26    1
     8    36    34    1
     9    11     9    1
    10    34     1    1
    11    34    37    1
    12    14    13    1
    13     9    12    1
    14     9     4    1
    15    24    22    1
    16    28    26    1
    17    26    27    1
    18    26    17    1
    19     1     3    1
    20     1     2    1
    21    16    13    1
    22    13     4    1
    23    13    15    1
    24    25    22    1
    25    22    17    1
    26    22    23    1
    27     4     3    1
    28     4     5    1
    29    17     2    1
    30    17    18    1
    31     7     5    1
    32     5     6    1
    33     5     8    1
    34    20    18    1
    35    18    21    1
    36    18    19    1
