@<TRIPOS>MOLECULE
1,2
 53 54 0 0 0
SMALL
GASTEIGER

@<TRIPOS>ATOM
      1 O           5.6431    6.7746    4.7612 O.3     1  UNL1        0.0000
      2 N           2.9040    6.6674    4.5645 N.pl3   1  UNL1        0.0000
      3 N           1.5178    6.5110    4.5916 N.2     1  UNL1        0.0000
      4 SI         -0.8220    5.1972    5.0812 Si      1  UNL1        0.0000
      5 P           3.0085    8.1555    3.9157 P.3     1  UNL1        0.0000
      6 C           5.7036    8.1382    4.6635 C.3     1  UNL1        0.0000
      7 C           7.1285    8.5803    4.2662 C.3     1  UNL1        0.0000
      8 H           7.8285    8.2232    5.0171 H       1  UNL1        0.0000
      9 H           7.1992    9.6630    4.1947 H       1  UNL1        0.0000
     10 H           7.3956    8.1351    3.3111 H       1  UNL1        0.0000
     11 C           5.3181    8.8058    5.9977 C.3     1  UNL1        0.0000
     12 H           4.3237    8.4670    6.2928 H       1  UNL1        0.0000
     13 H           5.3236    9.8913    5.9180 H       1  UNL1        0.0000
     14 H           6.0228    8.4979    6.7669 H       1  UNL1        0.0000
     15 C           4.7265    8.6325    3.5507 C.3     1  UNL1        0.0000
     16 H           4.9987    8.1509    2.6066 H       1  UNL1        0.0000
     17 H           4.7800    9.7154    3.4194 H       1  UNL1        0.0000
     18 C           2.2529    9.4658    4.9288 C.ar    1  UNL1        0.0000
     19 C           2.3964   10.7983    4.5550 C.ar    1  UNL1        0.0000
     20 H           2.9491   11.0529    3.6608 H       1  UNL1        0.0000
     21 C           1.8249   11.7975    5.3216 C.ar    1  UNL1        0.0000
     22 H           1.9380   12.8312    5.0292 H       1  UNL1        0.0000
     23 C           1.1086   11.4735    6.4630 C.ar    1  UNL1        0.0000
     24 H           0.6657   12.2561    7.0605 H       1  UNL1        0.0000
     25 C           0.9605   10.1475    6.8347 C.ar    1  UNL1        0.0000
     26 H           0.4017    9.8940    7.7232 H       1  UNL1        0.0000
     27 C           1.5293    9.1452    6.0694 C.ar    1  UNL1        0.0000
     28 H           1.4158    8.1082    6.3449 H       1  UNL1        0.0000
     29 C           2.0843    8.1501    2.3470 C.ar    1  UNL1        0.0000
     30 C           1.0786    9.0547    2.0384 C.ar    1  UNL1        0.0000
     31 H           0.8388    9.8555    2.7226 H       1  UNL1        0.0000
     32 C           0.3752    8.9199    0.8534 C.ar    1  UNL1        0.0000
     33 H          -0.4079    9.6238    0.6130 H       1  UNL1        0.0000
     34 C           0.6652    7.8825   -0.0169 C.ar    1  UNL1        0.0000
     35 H           0.1094    7.7802   -0.9370 H       1  UNL1        0.0000
     36 C           1.6596    6.9694    0.2975 C.ar    1  UNL1        0.0000
     37 H           1.8798    6.1528   -0.3736 H       1  UNL1        0.0000
     38 C           2.3660    7.1012    1.4776 C.ar    1  UNL1        0.0000
     39 H           3.1304    6.3826    1.7454 H       1  UNL1        0.0000
     40 C           1.0524    5.4113    5.0112 C.2     1  UNL1        0.0000
     41 H           1.7654    4.6285    5.3237 H       1  UNL1        0.0000
     42 C          -1.5011    6.2815    6.5021 C.3     1  UNL1        0.0000
     43 H          -2.5812    6.2007    6.5809 H       1  UNL1        0.0000
     44 H          -1.2598    7.3275    6.3359 H       1  UNL1        0.0000
     45 H          -1.0832    5.9942    7.4630 H       1  UNL1        0.0000
     46 C          -1.5326    5.7933    3.4151 C.3     1  UNL1        0.0000
     47 H          -1.2166    5.1514    2.5982 H       1  UNL1        0.0000
     48 H          -1.1788    6.7956    3.1927 H       1  UNL1        0.0000
     49 H          -2.6181    5.8128    3.4197 H       1  UNL1        0.0000
     50 C          -1.2366    3.3636    5.4076 C.3     1  UNL1        0.0000
     51 H          -2.2992    3.2331    5.5885 H       1  UNL1        0.0000
     52 H          -0.7092    2.9795    6.2759 H       1  UNL1        0.0000
     53 H          -0.9746    2.7347    4.5619 H       1  UNL1        0.0000
@<TRIPOS>BOND
     1    35    34    1
     2    37    36    1
     3    34    36   ar
     4    34    32   ar
     5    36    38   ar
     6    33    32    1
     7    32    30   ar
     8    38    39    1
     9    38    29   ar
    10    30    29   ar
    11    30    31    1
    12    29     5    1
    13    47    46    1
    14    16    15    1
    15    48    46    1
    16    10     7    1
    17    46    49    1
    18    46     4    1
    19    17    15    1
    20    15     5    1
    21    15     6    1
    22    20    19    1
    23     5     2    1
    24     5    18    1
    25     9     7    1
    26     7     6    1
    27     7     8    1
    28    19    18   ar
    29    19    21   ar
    30    53    50    1
    31     2     3    1
    32     3    40    2
    33     6     1    1
    34     6    11    1
    35    18    27   ar
    36    40     4    1
    37    40    41    1
    38    22    21    1
    39     4    50    1
    40     4    42    1
    41    21    23   ar
    42    50    51    1
    43    50    52    1
    44    13    11    1
    45    11    12    1
    46    11    14    1
    47    27    28    1
    48    27    25   ar
    49    44    42    1
    50    23    25   ar
    51    23    24    1
    52    42    43    1
    53    42    45    1
    54    25    26    1
