@<TRIPOS>MOLECULE
1,2
 55 56 0 0 0
SMALL
GASTEIGER

@<TRIPOS>ATOM
      1 O           3.4390   -5.9794    4.6052 O.3     1  UNL1       -0.2872
      2 N           4.1729   -3.6871    3.2752 N.pl3   1  UNL1       -0.2398
      3 C           5.1839   -3.7906    4.0764 C.3     1  UNL1        0.0954
      4 H           5.9233   -2.9771    4.0713 H       1  UNL1        0.0591
      5 C           4.4915   -5.8365    5.3369 C.ar    1  UNL1        0.1877
      6 C           5.4400   -4.8049    5.0397 C.ar    1  UNL1        0.0237
      7 C           6.6349   -4.6996    5.7761 C.ar    1  UNL1       -0.0530
      8 H           7.3380   -3.9184    5.5198 H       1  UNL1        0.0622
      9 C           6.9019   -5.5684    6.7938 C.ar    1  UNL1       -0.0609
     10 H           7.8251   -5.5069    7.3493 H       1  UNL1        0.0618
     11 C           5.9436   -6.5249    7.1455 C.ar    1  UNL1       -0.0544
     12 H           6.1700   -7.1605    7.9858 H       1  UNL1        0.0622
     13 C           4.7485   -6.6663    6.4806 C.ar    1  UNL1        0.0050
     14 C           3.6840   -7.6441    6.9613 C.3     1  UNL1       -0.0090
     15 C           4.1102   -8.4252    8.2096 C.3     1  UNL1       -0.0559
     16 H           3.2988   -9.0868    8.5067 H       1  UNL1        0.0238
     17 H           4.3185   -7.7582    9.0431 H       1  UNL1        0.0238
     18 H           4.9859   -9.0394    8.0121 H       1  UNL1        0.0238
     19 C           3.3647   -8.6600    5.8600 C.3     1  UNL1       -0.0559
     20 H           2.6168   -9.3683    6.2118 H       1  UNL1        0.0238
     21 H           4.2595   -9.2127    5.5800 H       1  UNL1        0.0238
     22 H           2.9828   -8.1546    4.9779 H       1  UNL1        0.0238
     23 C           2.4237   -6.8418    7.3151 C.3     1  UNL1       -0.0559
     24 H           1.6417   -7.5098    7.6696 H       1  UNL1        0.0238
     25 H           2.0540   -6.3087    6.4429 H       1  UNL1        0.0238
     26 H           2.6463   -6.1205    8.0997 H       1  UNL1        0.0238
     27 C           4.1144   -2.4444    2.5784 C.ar    1  UNL1        0.0554
     28 C           3.4591   -1.3664    3.1901 C.ar    1  UNL1       -0.0220
     29 C           3.4931   -0.1277    2.5668 C.ar    1  UNL1       -0.0565
     30 H           3.0125    0.7180    3.0329 H       1  UNL1        0.0621
     31 C           4.1483    0.0433    1.3624 C.ar    1  UNL1       -0.0611
     32 H           4.1802    1.0176    0.8976 H       1  UNL1        0.0618
     33 C           4.7557   -1.0354    0.7496 C.ar    1  UNL1       -0.0565
     34 H           5.2548   -0.8944   -0.1963 H       1  UNL1        0.0621
     35 C           4.7466   -2.2917    1.3405 C.ar    1  UNL1       -0.0220
     36 C           2.7413   -1.5501    4.5096 C.3     1  UNL1       -0.0197
     37 H           2.5765   -2.6291    4.6633 H       1  UNL1        0.0344
     38 C           3.6038   -1.0247    5.6609 C.3     1  UNL1       -0.0586
     39 H           4.5364   -1.5811    5.7295 H       1  UNL1        0.0235
     40 H           3.0741   -1.1293    6.6053 H       1  UNL1        0.0235
     41 H           3.8398    0.0270    5.5097 H       1  UNL1        0.0235
     42 C           1.3706   -0.8702    4.5135 C.3     1  UNL1       -0.0586
     43 H           0.8097   -1.1803    5.3922 H       1  UNL1        0.0235
     44 H           0.8074   -1.1518    3.6270 H       1  UNL1        0.0235
     45 H           1.4643    0.2127    4.5387 H       1  UNL1        0.0235
     46 C           5.4321   -3.4643    0.6772 C.3     1  UNL1       -0.0197
     47 H           5.0015   -4.3864    1.0949 H       1  UNL1        0.0344
     48 C           6.9329   -3.4309    0.9839 C.3     1  UNL1       -0.0586
     49 H           7.1187   -3.5942    2.0432 H       1  UNL1        0.0235
     50 H           7.3506   -2.4648    0.7061 H       1  UNL1        0.0235
     51 H           7.4502   -4.2029    0.4190 H       1  UNL1        0.0235
     52 C           5.2060   -3.4878   -0.8350 C.3     1  UNL1       -0.0586
     53 H           4.1528   -3.3512   -1.0669 H       1  UNL1        0.0235
     54 H           5.5218   -4.4466   -1.2412 H       1  UNL1        0.0235
     55 H           5.7801   -2.7095   -1.3321 H       1  UNL1        0.0235
@<TRIPOS>BOND
     1    55    52    1
     2    54    52    1
     3    53    52    1
     4    52    46    1
     5    34    33    1
     6    51    48    1
     7    46    48    1
     8    46    47    1
     9    46    35    1
    10    50    48    1
    11    33    35   ar
    12    33    31   ar
    13    32    31    1
    14    48    49    1
    15    35    27   ar
    16    31    29   ar
    17    29    30    1
    18    29    28   ar
    19    27    28   ar
    20    27     2    1
    21    28    36    1
    22     2     3    1
    23    44    42    1
    24     4     3    1
    25     3     6    1
    26    36    42    1
    27    36    37    1
    28    36    38    1
    29    42    45    1
    30    42    43    1
    31     1     5    1
    32    22    19    1
    33     6     5   ar
    34     6     7   ar
    35     5    13   ar
    36    41    38    1
    37     8     7    1
    38    21    19    1
    39    38    39    1
    40    38    40    1
    41     7     9   ar
    42    19    20    1
    43    19    14    1
    44    25    23    1
    45    13    14    1
    46    13    11   ar
    47     9    11   ar
    48     9    10    1
    49    14    23    1
    50    14    15    1
    51    11    12    1
    52    23    24    1
    53    23    26    1
    54    18    15    1
    55    15    16    1
    56    15    17    1
