@<TRIPOS>MOLECULE
1,2
 55 56 0 0 0
SMALL
GASTEIGER

@<TRIPOS>ATOM
      1 O           1.9400   -4.5874    1.3517 O.3     1  UNL1       -0.2872
      2 N           3.2762   -6.9654    1.7345 N.pl3   1  UNL1       -0.2398
      3 C           3.2902   -6.9167    0.4405 C.3     1  UNL1        0.0954
      4 H           3.7433   -7.7641   -0.0938 H       1  UNL1        0.0591
      5 C           2.7390   -5.9226   -0.4161 C.ar    1  UNL1        0.0237
      6 C           2.0033   -4.7996    0.0812 C.ar    1  UNL1        0.1877
      7 C           1.3466   -3.9518   -0.8746 C.ar    1  UNL1        0.0050
      8 C           1.5339   -4.2011   -2.2140 C.ar    1  UNL1       -0.0544
      9 H           1.0689   -3.5656   -2.9497 H       1  UNL1        0.0622
     10 C           2.3085   -5.2638   -2.6908 C.ar    1  UNL1       -0.0609
     11 H           2.4244   -5.4053   -3.7544 H       1  UNL1        0.0618
     12 C           2.8838   -6.1240   -1.8016 C.ar    1  UNL1       -0.0530
     13 H           3.4556   -6.9744   -2.1488 H       1  UNL1        0.0622
     14 C           0.4457   -2.8183   -0.3988 C.3     1  UNL1       -0.0090
     15 C           1.2570   -1.8305    0.4460 C.3     1  UNL1       -0.0559
     16 H           1.6790   -2.3312    1.3124 H       1  UNL1        0.0238
     17 H           0.6206   -1.0165    0.7876 H       1  UNL1        0.0238
     18 H           2.0713   -1.4077   -0.1388 H       1  UNL1        0.0238
     19 C          -0.1892   -2.0357   -1.5542 C.3     1  UNL1       -0.0559
     20 H           0.5675   -1.5573   -2.1721 H       1  UNL1        0.0238
     21 H          -0.8260   -1.2547   -1.1436 H       1  UNL1        0.0238
     22 H          -0.8084   -2.6786   -2.1757 H       1  UNL1        0.0238
     23 C          -0.6884   -3.4128    0.4464 C.3     1  UNL1       -0.0559
     24 H          -0.2860   -3.9283    1.3134 H       1  UNL1        0.0238
     25 H          -1.2661   -4.1208   -0.1449 H       1  UNL1        0.0238
     26 H          -1.3541   -2.6228    0.7885 H       1  UNL1        0.0238
     27 C           3.8024   -8.1837    2.2606 C.ar    1  UNL1        0.0554
     28 C           2.9230   -9.2513    2.4928 C.ar    1  UNL1       -0.0220
     29 C           3.4506  -10.4726    2.8847 C.ar    1  UNL1       -0.0565
     30 H           2.7955  -11.3133    3.0456 H       1  UNL1        0.0621
     31 C           4.8114  -10.6332    3.0662 C.ar    1  UNL1       -0.0611
     32 H           5.2074  -11.5943    3.3595 H       1  UNL1        0.0618
     33 C           5.6620   -9.5610    2.8845 C.ar    1  UNL1       -0.0565
     34 H           6.7202   -9.6924    3.0458 H       1  UNL1        0.0621
     35 C           5.1764   -8.3245    2.4800 C.ar    1  UNL1       -0.0220
     36 C           1.4326   -9.0552    2.3198 C.3     1  UNL1       -0.0197
     37 H           1.2076   -8.0033    2.5745 H       1  UNL1        0.0344
     38 C           1.0122   -9.3083    0.8678 C.3     1  UNL1       -0.0586
     39 H           1.4617   -8.5843    0.1922 H       1  UNL1        0.0235
     40 H          -0.0688   -9.2299    0.7755 H       1  UNL1        0.0235
     41 H           1.3155  -10.3070    0.5577 H       1  UNL1        0.0235
     42 C           0.6082   -9.9500    3.2456 C.3     1  UNL1       -0.0586
     43 H          -0.4237   -9.6088    3.2552 H       1  UNL1        0.0235
     44 H           0.9916   -9.9140    4.2617 H       1  UNL1        0.0235
     45 H           0.6166  -10.9825    2.9030 H       1  UNL1        0.0235
     46 C           6.1179   -7.1617    2.2615 C.3     1  UNL1       -0.0197
     47 H           5.5334   -6.2335    2.3512 H       1  UNL1        0.0344
     48 C           6.7289   -7.2336    0.8577 C.3     1  UNL1       -0.0586
     49 H           5.9778   -7.0556    0.0916 H       1  UNL1        0.0235
     50 H           7.1671   -8.2160    0.6900 H       1  UNL1        0.0235
     51 H           7.5121   -6.4867    0.7514 H       1  UNL1        0.0235
     52 C           7.2324   -7.1174    3.3081 C.3     1  UNL1       -0.0586
     53 H           6.8272   -7.2515    4.3078 H       1  UNL1        0.0235
     54 H           7.7362   -6.1538    3.2706 H       1  UNL1        0.0235
     55 H           7.9763   -7.8890    3.1232 H       1  UNL1        0.0235
@<TRIPOS>BOND
     1    11    10    1
     2     9     8    1
     3    10     8   ar
     4    10    12   ar
     5     8     7   ar
     6    22    19    1
     7    20    19    1
     8    13    12    1
     9    12     5   ar
    10    19    21    1
    11    19    14    1
    12     7    14    1
    13     7     6   ar
    14     5     6   ar
    15     5     3    1
    16    14    15    1
    17    14    23    1
    18    25    23    1
    19    18    15    1
    20     4     3    1
    21     6     1    1
    22    49    48    1
    23    39    38    1
    24     3     2    1
    25    15    17    1
    26    15    16    1
    27    23    26    1
    28    23    24    1
    29    41    38    1
    30    50    48    1
    31    51    48    1
    32    40    38    1
    33    48    46    1
    34    38    36    1
    35     2    27    1
    36    27    35   ar
    37    27    28   ar
    38    46    47    1
    39    46    35    1
    40    46    52    1
    41    36    28    1
    42    36    37    1
    43    36    42    1
    44    35    33   ar
    45    28    29   ar
    46    33    34    1
    47    33    31   ar
    48    29    30    1
    49    29    31   ar
    50    45    42    1
    51    31    32    1
    52    55    52    1
    53    42    43    1
    54    42    44    1
    55    54    52    1
    56    52    53    1
