@<TRIPOS>MOLECULE
1,2
 55 56 0 0 0
SMALL
GASTEIGER

@<TRIPOS>ATOM
      1 O           8.9926    0.8760    6.0924 O.3     1  UNL1       -0.2872
      2 N          11.0776    2.3605    4.9128 N.pl3   1  UNL1       -0.2398
      3 C          11.6938    1.2509    5.1694 C.3     1  UNL1        0.0954
      4 H          12.7863    1.2383    5.0507 H       1  UNL1        0.0591
      5 C           9.7993   -0.1243    6.0854 C.ar    1  UNL1        0.1877
      6 C          11.1480    0.0156    5.6162 C.ar    1  UNL1        0.0237
      7 C          12.0201   -1.0901    5.6426 C.ar    1  UNL1       -0.0530
      8 H          13.0339   -0.9613    5.2866 H       1  UNL1        0.0622
      9 C          11.5952   -2.3064    6.0913 C.ar    1  UNL1       -0.0609
     10 H          12.2599   -3.1569    6.0970 H       1  UNL1        0.0618
     11 C          10.2840   -2.4499    6.5601 C.ar    1  UNL1       -0.0544
     12 H           9.9917   -3.4250    6.9151 H       1  UNL1        0.0622
     13 C           9.3884   -1.4097    6.5842 C.ar    1  UNL1        0.0050
     14 C           7.9710   -1.5775    7.1209 C.3     1  UNL1       -0.0090
     15 C           6.9601   -1.2862    6.0023 C.3     1  UNL1       -0.0559
     16 H           5.9451   -1.3877    6.3821 H       1  UNL1        0.0238
     17 H           7.0936   -1.9884    5.1808 H       1  UNL1        0.0238
     18 H           7.0901   -0.2749    5.6219 H       1  UNL1        0.0238
     19 C           7.6977   -2.9939    7.6394 C.3     1  UNL1       -0.0559
     20 H           6.6791   -3.0431    8.0192 H       1  UNL1        0.0238
     21 H           8.3712   -3.2530    8.4533 H       1  UNL1        0.0238
     22 H           7.7939   -3.7319    6.8460 H       1  UNL1        0.0238
     23 C           7.7550   -0.6019    8.2871 C.3     1  UNL1       -0.0559
     24 H           6.7475   -0.7118    8.6835 H       1  UNL1        0.0238
     25 H           7.8892    0.4242    7.9555 H       1  UNL1        0.0238
     26 H           8.4664   -0.8090    9.0846 H       1  UNL1        0.0238
     27 C          11.9126    3.4720    4.6277 C.ar    1  UNL1        0.0554
     28 C          12.4606    4.1963    5.6959 C.ar    1  UNL1       -0.0220
     29 C          13.3304    5.2404    5.4155 C.ar    1  UNL1       -0.0565
     30 H          13.7768    5.7967    6.2249 H       1  UNL1        0.0621
     31 C          13.6511    5.5658    4.1118 C.ar    1  UNL1       -0.0611
     32 H          14.3475    6.3662    3.9090 H       1  UNL1        0.0618
     33 C          13.0745    4.8700    3.0652 C.ar    1  UNL1       -0.0565
     34 H          13.3267    5.1413    2.0524 H       1  UNL1        0.0621
     35 C          12.1911    3.8250    3.3007 C.ar    1  UNL1       -0.0220
     36 C          12.1190    3.8427    7.1271 C.3     1  UNL1       -0.0197
     37 H          11.2338    3.1933    7.1222 H       1  UNL1        0.0344
     38 C          11.7782    5.0843    7.9542 C.3     1  UNL1       -0.0586
     39 H          11.3688    4.7839    8.9159 H       1  UNL1        0.0235
     40 H          11.0375    5.6940    7.4415 H       1  UNL1        0.0235
     41 H          12.6599    5.6930    8.1395 H       1  UNL1        0.0235
     42 C          13.2752    3.0763    7.7758 C.3     1  UNL1       -0.0586
     43 H          13.0389    2.8479    8.8128 H       1  UNL1        0.0235
     44 H          14.1874    3.6692    7.7499 H       1  UNL1        0.0235
     45 H          13.4583    2.1399    7.2539 H       1  UNL1        0.0235
     46 C          11.5475    3.0703    2.1583 C.3     1  UNL1       -0.0197
     47 H          10.5610    2.7138    2.4999 H       1  UNL1        0.0344
     48 C          12.3958    1.8542    1.7739 C.3     1  UNL1       -0.0586
     49 H          11.9472    1.3459    0.9237 H       1  UNL1        0.0235
     50 H          12.4672    1.1493    2.5990 H       1  UNL1        0.0235
     51 H          13.4019    2.1688    1.5016 H       1  UNL1        0.0235
     52 C          11.3238    3.9496    0.9275 C.3     1  UNL1       -0.0586
     53 H          10.6472    3.4503    0.2391 H       1  UNL1        0.0235
     54 H          12.2581    4.1343    0.4018 H       1  UNL1        0.0235
     55 H          10.8872    4.9041    1.2097 H       1  UNL1        0.0235
@<TRIPOS>BOND
     1    53    52    1
     2    54    52    1
     3    49    48    1
     4    52    55    1
     5    52    46    1
     6    51    48    1
     7    48    46    1
     8    48    50    1
     9    34    33    1
    10    46    47    1
    11    46    35    1
    12    33    35   ar
    13    33    31   ar
    14    35    27   ar
    15    32    31    1
    16    31    29   ar
    17    27     2    1
    18    27    28   ar
    19     2     3    1
    20     4     3    1
    21     3     6    1
    22    17    15    1
    23     8     7    1
    24    29    28   ar
    25    29    30    1
    26     6     7   ar
    27     6     5   ar
    28    18    15    1
    29     7     9   ar
    30    28    36    1
    31    15    16    1
    32    15    14    1
    33     5     1    1
    34     5    13   ar
    35     9    10    1
    36     9    11   ar
    37    11    13   ar
    38    11    12    1
    39    13    14    1
    40    22    19    1
    41    14    19    1
    42    14    23    1
    43    37    36    1
    44    36    42    1
    45    36    38    1
    46    45    42    1
    47    40    38    1
    48    19    20    1
    49    19    21    1
    50    44    42    1
    51    42    43    1
    52    38    41    1
    53    38    39    1
    54    25    23    1
    55    23    24    1
    56    23    26    1
