@<TRIPOS>MOLECULE
1,26
 55 56 0 0 0
SMALL
GASTEIGER

@<TRIPOS>ATOM
      1 O           6.7630    0.8916    5.9715 O.3     1  UNL1       -0.2872
      2 C           6.5069    1.2696    3.1063 C.3     1  UNL1        0.0954
      3 H           6.5877    1.5984    2.0598 H       1  UNL1        0.0591
      4 C           7.7426    1.3930    5.3053 C.ar    1  UNL1        0.1877
      5 C           7.6589    1.5800    3.8841 C.ar    1  UNL1        0.0237
      6 C           8.7393    2.1329    3.1702 C.ar    1  UNL1       -0.0530
      7 H           8.6415    2.2608    2.0998 H       1  UNL1        0.0622
      8 C           9.8915    2.4958    3.8029 C.ar    1  UNL1       -0.0609
      9 H          10.7223    2.9108    3.2529 H       1  UNL1        0.0618
     10 C           9.9828    2.3356    5.1883 C.ar    1  UNL1       -0.0544
     11 H          10.9021    2.6453    5.6580 H       1  UNL1        0.0622
     12 C           8.9633    1.8163    5.9475 C.ar    1  UNL1        0.0050
     13 C           9.1129    1.6749    7.4578 C.3     1  UNL1       -0.0090
     14 C           8.9917    0.1928    7.8288 C.3     1  UNL1       -0.0559
     15 H           8.0307   -0.1962    7.5051 H       1  UNL1        0.0238
     16 H           9.0734    0.0636    8.9055 H       1  UNL1        0.0238
     17 H           9.7885   -0.3767    7.3516 H       1  UNL1        0.0238
     18 C           8.0069    2.4847    8.1455 C.3     1  UNL1       -0.0559
     19 H           8.0872    3.5369    7.8766 H       1  UNL1        0.0238
     20 H           8.0872    2.3945    9.2271 H       1  UNL1        0.0238
     21 H           7.0360    2.1157    7.8316 H       1  UNL1        0.0238
     22 C          10.4585    2.1833    7.9873 C.3     1  UNL1       -0.0559
     23 H          11.2897    1.6215    7.5670 H       1  UNL1        0.0238
     24 H          10.4830    2.0558    9.0681 H       1  UNL1        0.0238
     25 H          10.5957    3.2409    7.7728 H       1  UNL1        0.0238
     26 N           5.4161    0.6814    3.4621 N.pl3   1  UNL1       -0.2398
     27 C           4.4365    0.5858    2.4376 C.ar    1  UNL1        0.0554
     28 C           4.4904   -0.4507    1.4965 C.ar    1  UNL1       -0.0220
     29 C           3.5353   -0.4877    0.4902 C.ar    1  UNL1       -0.0565
     30 H           3.5677   -1.2723   -0.2499 H       1  UNL1        0.0621
     31 C           2.5428    0.4698    0.4158 C.ar    1  UNL1       -0.0611
     32 H           1.8113    0.4296   -0.3776 H       1  UNL1        0.0618
     33 C           2.4851    1.4766    1.3611 C.ar    1  UNL1       -0.0565
     34 H           1.7033    2.2168    1.2954 H       1  UNL1        0.0621
     35 C           3.4217    1.5502    2.3811 C.ar    1  UNL1       -0.0220
     36 C           5.5576   -1.5206    1.5783 C.3     1  UNL1       -0.0197
     37 H           6.0420   -1.4425    2.5584 H       1  UNL1        0.0344
     38 C           6.6129   -1.3034    0.4899 C.3     1  UNL1       -0.0586
     39 H           6.1517   -1.3205   -0.4954 H       1  UNL1        0.0235
     40 H           7.3690   -2.0857    0.5282 H       1  UNL1        0.0235
     41 H           7.1082   -0.3436    0.6187 H       1  UNL1        0.0235
     42 C           4.9583   -2.9249    1.4685 C.3     1  UNL1       -0.0586
     43 H           4.1705   -3.0600    2.2073 H       1  UNL1        0.0235
     44 H           5.7305   -3.6733    1.6396 H       1  UNL1        0.0235
     45 H           4.5386   -3.1012    0.4814 H       1  UNL1        0.0235
     46 C           3.3847    2.6620    3.4052 C.3     1  UNL1       -0.0197
     47 H           3.9265    2.3138    4.2942 H       1  UNL1        0.0344
     48 C           4.1033    3.8981    2.8552 C.3     1  UNL1       -0.0586
     49 H           5.1483    3.6748    2.6514 H       1  UNL1        0.0235
     50 H           4.0629    4.7129    3.5755 H       1  UNL1        0.0235
     51 H           3.6346    4.2292    1.9302 H       1  UNL1        0.0235
     52 C           1.9608    3.0199    3.8323 C.3     1  UNL1       -0.0586
     53 H           1.4187    3.5181    3.0323 H       1  UNL1        0.0235
     54 H           1.9903    3.6978    4.6832 H       1  UNL1        0.0235
     55 H           1.4133    2.1254    4.1217 H       1  UNL1        0.0235
@<TRIPOS>BOND
     1    39    38    1
     2    32    31    1
     3    30    29    1
     4    31    29   ar
     5    31    33   ar
     6    45    42    1
     7    38    40    1
     8    38    41    1
     9    38    36    1
    10    29    28   ar
    11    34    33    1
    12    33    35   ar
    13    42    36    1
    14    42    44    1
    15    42    43    1
    16    28    36    1
    17    28    27   ar
    18    36    37    1
    19    51    48    1
    20     3     2    1
    21     7     6    1
    22    35    27   ar
    23    35    46    1
    24    27    26    1
    25    49    48    1
    26    48    46    1
    27    48    50    1
    28    53    52    1
    29     2    26    1
    30     2     5    1
    31     6     8   ar
    32     6     5   ar
    33     9     8    1
    34    46    52    1
    35    46    47    1
    36     8    10   ar
    37    52    55    1
    38    52    54    1
    39     5     4   ar
    40    10    11    1
    41    10    12   ar
    42     4    12   ar
    43     4     1    1
    44    12    13    1
    45    17    14    1
    46    13    14    1
    47    13    22    1
    48    13    18    1
    49    15    14    1
    50    23    22    1
    51    25    22    1
    52    14    16    1
    53    21    18    1
    54    19    18    1
    55    22    24    1
    56    18    20    1
