@<TRIPOS>MOLECULE
2,3
 54 56 0 0 0
SMALL
GASTEIGER

@<TRIPOS>ATOM
      1 O           8.7806    9.7974   22.5741 O.3     1  UNL1       -0.4945
      2 O           4.9591   11.2220   21.0532 O.3     1  UNL1       -0.1940
      3 N           6.6199    9.8195   20.6801 N.pl3   1  UNL1       -0.2050
      4 C           8.0562    7.8597   20.5487 C.ar    1  UNL1        0.0114
      5 C           7.3193    8.8809   19.9192 C.ar    1  UNL1        0.0596
      6 C           7.3785    8.9964   18.5300 C.ar    1  UNL1       -0.0384
      7 H           6.7968    9.7631   18.0448 H       1  UNL1        0.0637
      8 C           8.1891    8.1644   17.7854 C.ar    1  UNL1       -0.0597
      9 H           8.2225    8.2682   16.7107 H       1  UNL1        0.0618
     10 C           8.9788    7.2227   18.4166 C.ar    1  UNL1       -0.0581
     11 H           9.6486    6.6002   17.8411 H       1  UNL1        0.0620
     12 C           8.9189    7.0606   19.7949 C.ar    1  UNL1       -0.0408
     13 C           9.8293    6.0519   20.4363 C.3     1  UNL1       -0.0391
     14 H          10.8577    6.2411   20.1290 H       1  UNL1        0.0278
     15 H           9.5721    5.0444   20.1117 H       1  UNL1        0.0278
     16 H           9.7781    6.0943   21.5207 H       1  UNL1        0.0278
     17 C           7.8738    7.6100   21.9992 C.ar    1  UNL1        0.0288
     18 C           8.2369    8.5687   22.9506 C.ar    1  UNL1        0.1281
     19 C           8.0615    8.3343   24.3065 C.ar    1  UNL1       -0.0193
     20 H           8.3454    9.1077   25.0003 H       1  UNL1        0.0654
     21 C           7.5026    7.1435   24.7320 C.ar    1  UNL1       -0.0580
     22 H           7.3637    6.9546   25.7858 H       1  UNL1        0.0619
     23 C           7.1183    6.1975   23.8015 C.ar    1  UNL1       -0.0580
     24 H           6.6696    5.2710   24.1296 H       1  UNL1        0.0620
     25 C           7.2901    6.4143   22.4401 C.ar    1  UNL1       -0.0392
     26 C           6.8300    5.3533   21.4833 C.3     1  UNL1       -0.0390
     27 H           6.7096    5.7457   20.4776 H       1  UNL1        0.0278
     28 H           5.8817    4.9380   21.8184 H       1  UNL1        0.0278
     29 H           7.5524    4.5381   21.4504 H       1  UNL1        0.0278
     30 C          10.1256    9.6779   22.1205 C.3     1  UNL1        0.0788
     31 H          10.1908    9.0340   21.2388 H       1  UNL1        0.0660
     32 H          10.7608    9.2691   22.9155 H       1  UNL1        0.0660
     33 H          10.4532   10.6801   21.8559 H       1  UNL1        0.0660
     34 C           5.3995   10.2190   20.4090 C.3     1  UNL1        0.2664
     35 C           4.5036    9.5350   19.4262 C.ar    1  UNL1        0.0177
     36 C           4.1780   10.1689   18.2264 C.ar    1  UNL1       -0.0421
     37 C           3.3685    9.5097   17.3124 C.ar    1  UNL1       -0.0555
     38 H           3.1283    9.9977   16.3779 H       1  UNL1        0.0623
     39 C           2.8601    8.2462   17.5726 C.ar    1  UNL1       -0.0499
     40 C           3.1568    7.6541   18.7907 C.ar    1  UNL1       -0.0555
     41 H           2.7454    6.6815   19.0222 H       1  UNL1        0.0623
     42 C           3.9652    8.2821   19.7268 C.ar    1  UNL1       -0.0421
     43 C           4.6824   11.5434   17.8992 C.3     1  UNL1       -0.0393
     44 H           3.8430   12.2279   17.7809 H       1  UNL1        0.0278
     45 H           5.2355   11.5369   16.9595 H       1  UNL1        0.0278
     46 H           5.3212   11.9317   18.6885 H       1  UNL1        0.0278
     47 C           1.9890    7.5588   16.5648 C.3     1  UNL1       -0.0397
     48 H           1.0461    8.0940   16.4547 H       1  UNL1        0.0278
     49 H           1.7722    6.5380   16.8688 H       1  UNL1        0.0278
     50 H           2.4752    7.5386   15.5907 H       1  UNL1        0.0278
     51 C           4.1929    7.6505   21.0652 C.3     1  UNL1       -0.0393
     52 H           3.9185    6.5986   21.0467 H       1  UNL1        0.0278
     53 H           3.5796    8.1532   21.8133 H       1  UNL1        0.0278
     54 H           5.2283    7.7450   21.3787 H       1  UNL1        0.0278
@<TRIPOS>BOND
     1    50    47    1
     2    38    37    1
     3    48    47    1
     4    47    49    1
     5    47    39    1
     6     9     8    1
     7    45    43    1
     8    37    39   ar
     9    37    36   ar
    10    39    40   ar
    11    44    43    1
    12     8    10   ar
    13     8     6   ar
    14    11    10    1
    15    43    36    1
    16    43    46    1
    17     7     6    1
    18    36    35   ar
    19    10    12   ar
    20     6     5   ar
    21    40    41    1
    22    40    42   ar
    23    35    42   ar
    24    35    34    1
    25    42    51    1
    26    12    13    1
    27    12     4   ar
    28     5     4   ar
    29     5     3    1
    30    15    13    1
    31    14    13    1
    32    34     3    1
    33    34     2    1
    34    13    16    1
    35    27    26    1
    36     4    17    1
    37    52    51    1
    38    51    54    1
    39    51    53    1
    40    31    30    1
    41    29    26    1
    42    26    28    1
    43    26    25    1
    44    33    30    1
    45    17    25   ar
    46    17    18   ar
    47    30     1    1
    48    30    32    1
    49    25    23   ar
    50     1    18    1
    51    18    19   ar
    52    23    24    1
    53    23    21   ar
    54    19    21   ar
    55    19    20    1
    56    21    22    1
