@<TRIPOS>MOLECULE
2,3
 56 57 0 0 0
SMALL
GASTEIGER

@<TRIPOS>ATOM
      1 SI          5.1549   14.4741    6.7176 Si      1  UNL1        0.0000
      2 O           2.5122   15.6151    9.8317 O.3     1  UNL1        0.0000
      3 N           4.1077   15.0342    7.9601 N.3     1  UNL1        0.0000
      4 C           4.4752   16.2863    8.6022 C.3     1  UNL1        0.0000
      5 H           5.5458   16.2722    8.8673 H       1  UNL1        0.0000
      6 C           4.2595   17.4602    7.6807 C.ar    1  UNL1        0.0000
      7 C           3.0689   17.5520    6.9720 C.ar    1  UNL1        0.0000
      8 H           2.3385   16.7688    7.1300 H       1  UNL1        0.0000
      9 C           2.8490   18.6018    6.0998 C.ar    1  UNL1        0.0000
     10 H           1.9238   18.6618    5.5439 H       1  UNL1        0.0000
     11 C           3.8183   19.5781    5.9317 C.ar    1  UNL1        0.0000
     12 H           3.6516   20.3971    5.2473 H       1  UNL1        0.0000
     13 C           5.0028   19.5000    6.6435 C.ar    1  UNL1        0.0000
     14 H           5.7606   20.2596    6.5154 H       1  UNL1        0.0000
     15 C           5.2224   18.4464    7.5144 C.ar    1  UNL1        0.0000
     16 H           6.1527   18.3865    8.0631 H       1  UNL1        0.0000
     17 C           4.2724   13.0679    5.7607 C.3     1  UNL1        0.0000
     18 H           4.3051   13.2529    4.6922 H       1  UNL1        0.0000
     19 H           3.2280   12.9906    6.0549 H       1  UNL1        0.0000
     20 H           4.7470   12.1075    5.9323 H       1  UNL1        0.0000
     21 C           5.6937   15.7681    5.4028 C.3     1  UNL1        0.0000
     22 H           4.8458   16.2670    4.9428 H       1  UNL1        0.0000
     23 H           6.2659   15.2919    4.6121 H       1  UNL1        0.0000
     24 H           6.3203   16.5388    5.8396 H       1  UNL1        0.0000
     25 C           6.8055   13.8183    7.4687 C.3     1  UNL1        0.0000
     26 H           7.4388   14.6399    7.7906 H       1  UNL1        0.0000
     27 H           7.3691   13.2459    6.7389 H       1  UNL1        0.0000
     28 H           6.6390   13.1806    8.3331 H       1  UNL1        0.0000
     29 C           3.6448   16.4222    9.9336 C.3     1  UNL1        0.0000
     30 C           3.2352   17.8828   10.2164 C.3     1  UNL1        0.0000
     31 H           4.1206   18.5192   10.1536 H       1  UNL1        0.0000
     32 H           2.5250   18.2072    9.4520 H       1  UNL1        0.0000
     33 C           2.5856   18.0166   11.5914 C.3     1  UNL1        0.0000
     34 H           1.7075   17.3728   11.6062 H       1  UNL1        0.0000
     35 H           2.2633   19.0504   11.7252 H       1  UNL1        0.0000
     36 C           3.5346   17.5892   12.7133 C.3     1  UNL1        0.0000
     37 H           4.4620   18.1684   12.6190 H       1  UNL1        0.0000
     38 C           3.8823   16.1200   12.4591 C.3     1  UNL1        0.0000
     39 H           4.5620   15.7394   13.2217 H       1  UNL1        0.0000
     40 H           2.9728   15.5198   12.4711 H       1  UNL1        0.0000
     41 C           4.5534   15.9689   11.0970 C.3     1  UNL1        0.0000
     42 H           4.8429   14.9295   10.9247 H       1  UNL1        0.0000
     43 H           5.4590   16.5814   11.0782 H       1  UNL1        0.0000
     44 C           2.9690   17.8842   14.1292 C.3     1  UNL1        0.0000
     45 C           3.0485   19.3931   14.3948 C.3     1  UNL1        0.0000
     46 H           4.0826   19.7303   14.3777 H       1  UNL1        0.0000
     47 H           2.6311   19.6245   15.3725 H       1  UNL1        0.0000
     48 H           2.4926   19.9574   13.6512 H       1  UNL1        0.0000
     49 C           3.8088   17.1823   15.2042 C.3     1  UNL1        0.0000
     50 H           3.6378   16.1093   15.2015 H       1  UNL1        0.0000
     51 H           3.5383   17.5600   16.1883 H       1  UNL1        0.0000
     52 H           4.8691   17.3703   15.0504 H       1  UNL1        0.0000
     53 C           1.5128   17.4353   14.2768 C.3     1  UNL1        0.0000
     54 H           0.8492   18.0568   13.6824 H       1  UNL1        0.0000
     55 H           1.2066   17.5128   15.3183 H       1  UNL1        0.0000
     56 H           1.3898   16.4018   13.9647 H       1  UNL1        0.0000
@<TRIPOS>BOND
     1    23    21    1
     2    18    17    1
     3    22    21    1
     4    12    11    1
     5    21    24    1
     6    21     1    1
     7    10     9    1
     8    17    20    1
     9    17    19    1
    10    17     1    1
    11    11     9   ar
    12    11    13   ar
    13     9     7   ar
    14    14    13    1
    15    13    15   ar
    16     1    25    1
    17     1     3    1
    18    27    25    1
    19     7     8    1
    20     7     6   ar
    21    25    26    1
    22    25    28    1
    23    15     6   ar
    24    15    16    1
    25     6     4    1
    26     3     4    1
    27     4     5    1
    28     4    29    1
    29    32    30    1
    30     2    29    1
    31    29    30    1
    32    29    41    1
    33    31    30    1
    34    30    33    1
    35    42    41    1
    36    43    41    1
    37    41    38    1
    38    33    34    1
    39    33    35    1
    40    33    36    1
    41    38    40    1
    42    38    36    1
    43    38    39    1
    44    37    36    1
    45    36    44    1
    46    48    45    1
    47    54    53    1
    48    56    53    1
    49    44    53    1
    50    44    45    1
    51    44    49    1
    52    53    55    1
    53    46    45    1
    54    45    47    1
    55    52    49    1
    56    50    49    1
    57    49    51    1
