@<TRIPOS>MOLECULE
5,6
 53 55 0 0 0
SMALL
GASTEIGER

@<TRIPOS>ATOM
      1 SI          7.4738    4.5091   12.4182 Si      1  UNL1        0.0000
      2 SI          8.7347    4.6710   14.4375 Si      1  UNL1        0.0000
      3 SI          7.0075    2.2628   11.7855 Si      1  UNL1        0.0000
      4 SI          8.1717    5.8835   10.5788 Si      1  UNL1        0.0000
      5 O           5.3049    5.3625   11.3735 O.3     1  UNL1        0.0000
      6 N           3.9310    3.7302   12.8728 N.pl3   1  UNL1        0.0000
      7 C           3.2041    2.8338   13.5506 C.3     1  UNL1        0.0000
      8 C           3.3403    2.6335   14.9053 C.2     1  UNL1        0.0000
      9 C           4.2594    3.4202   15.6090 C.2     1  UNL1        0.0000
     10 C           5.0149    4.3375   14.9232 C.2     1  UNL1        0.0000
     11 C           4.8523    4.4653   13.5336 C.2     1  UNL1        0.0000
     12 C           5.6894    5.3123   12.7073 C.3     1  UNL1        0.0000
     13 C           8.2002    3.6829   16.0035 C.3     1  UNL1        0.0000
     14 C          10.4509    3.9813   13.9685 C.3     1  UNL1        0.0000
     15 C           8.9652    6.4925   15.0025 C.3     1  UNL1        0.0000
     16 C           6.5497    1.1181   13.2609 C.3     1  UNL1        0.0000
     17 C           5.6224    2.1272   10.4802 C.3     1  UNL1        0.0000
     18 C           8.6203    1.5390   11.0505 C.3     1  UNL1        0.0000
     19 C          10.0755    6.0903   10.6972 C.3     1  UNL1        0.0000
     20 C           7.7935    5.0656    8.8944 C.3     1  UNL1        0.0000
     21 C           7.4036    7.6377   10.5947 C.3     1  UNL1        0.0000
     22 H           2.4948    2.2703   12.9568 H       1  UNL1        0.0000
     23 H           2.7379    1.8972   15.4113 H       1  UNL1        0.0000
     24 H           4.3670    3.3063   16.6770 H       1  UNL1        0.0000
     25 H           5.7308    4.9692   15.4222 H       1  UNL1        0.0000
     26 H           5.8213    6.3095   13.1370 H       1  UNL1        0.0000
     27 H           7.6295    4.2869   16.7025 H       1  UNL1        0.0000
     28 H           9.0677    3.3071   16.5392 H       1  UNL1        0.0000
     29 H           7.5886    2.8266   15.7379 H       1  UNL1        0.0000
     30 H          10.8524    4.4806   13.0944 H       1  UNL1        0.0000
     31 H          10.3914    2.9224   13.7390 H       1  UNL1        0.0000
     32 H          11.1717    4.0993   14.7716 H       1  UNL1        0.0000
     33 H           9.3889    7.0896   14.2013 H       1  UNL1        0.0000
     34 H           9.6295    6.5762   15.8581 H       1  UNL1        0.0000
     35 H           8.0194    6.9492   15.2804 H       1  UNL1        0.0000
     36 H           5.6774    1.4740   13.8009 H       1  UNL1        0.0000
     37 H           7.3701    1.0485   13.9684 H       1  UNL1        0.0000
     38 H           6.3299    0.1099   12.9201 H       1  UNL1        0.0000
     39 H           5.2852    3.1280   10.1870 H       1  UNL1        0.0000
     40 H           4.7603    1.5759   10.8519 H       1  UNL1        0.0000
     41 H           5.9555    1.6292    9.5727 H       1  UNL1        0.0000
     42 H           8.9504    2.0913   10.1771 H       1  UNL1        0.0000
     43 H           8.4925    0.5030   10.7525 H       1  UNL1        0.0000
     44 H           9.4259    1.5700   11.7763 H       1  UNL1        0.0000
     45 H          10.3808    6.5828   11.6141 H       1  UNL1        0.0000
     46 H          10.4537    6.6813    9.8700 H       1  UNL1        0.0000
     47 H          10.5736    5.1274   10.6590 H       1  UNL1        0.0000
     48 H           8.2187    4.0684    8.8267 H       1  UNL1        0.0000
     49 H           8.1957    5.6479    8.0688 H       1  UNL1        0.0000
     50 H           6.7221    4.9809    8.7389 H       1  UNL1        0.0000
     51 H           7.5568    8.1459   11.5430 H       1  UNL1        0.0000
     52 H           6.3349    7.5511   10.4252 H       1  UNL1        0.0000
     53 H           7.8139    8.2699    9.8115 H       1  UNL1        0.0000
@<TRIPOS>BOND
     1    49    20    1
     2    50    20    1
     3    48    20    1
     4    20     4    1
     5    41    17    1
     6    53    21    1
     7    46    19    1
     8    42    18    1
     9    39    17    1
    10    52    21    1
    11    17    40    1
    12    17     3    1
    13     4    21    1
    14     4    19    1
    15     4     1    1
    16    21    51    1
    17    47    19    1
    18    19    45    1
    19    43    18    1
    20    18    44    1
    21    18     3    1
    22     5    12    1
    23     3     1    1
    24     3    16    1
    25     1    12    1
    26     1     2    1
    27    12    26    1
    28    12    11    1
    29     6    11    1
    30     6     7    1
    31    38    16    1
    32    22     7    1
    33    30    14    1
    34    16    36    1
    35    16    37    1
    36    11    10    2
    37     7     8    1
    38    31    14    1
    39    14     2    1
    40    14    32    1
    41    33    15    1
    42     2    15    1
    43     2    13    1
    44     8    23    1
    45     8     9    2
    46    10    25    1
    47    10     9    1
    48    15    35    1
    49    15    34    1
    50     9    24    1
    51    29    13    1
    52    13    28    1
    53    13    27    1
    54     1     5    0
    55     1    11    0
