@<TRIPOS>MOLECULE
2,3
 37 36 0 0 0
SMALL
GASTEIGER

@<TRIPOS>ATOM
      1 SI         -2.3545    4.7438   13.7686 Si      1  UNL1        0.0000
      2 O          -3.2859    3.6440   14.6873 O.3     1  UNL1        0.0000
      3 N          -1.9653    3.6186   12.5571 N.3     1  UNL1        0.0000
      4 C          -3.3251    6.3301   13.2698 C.3     1  UNL1        0.0000
      5 H          -4.2359    6.0747   12.7335 H       1  UNL1        0.0000
      6 H          -2.7158    6.9425   12.6116 H       1  UNL1        0.0000
      7 H          -3.5998    6.9620   14.1086 H       1  UNL1        0.0000
      8 C          -0.8556    5.3062   14.8413 C.3     1  UNL1        0.0000
      9 H          -1.0816    6.1919   15.4245 H       1  UNL1        0.0000
     10 H          -0.0094    5.5507   14.2106 H       1  UNL1        0.0000
     11 H          -0.5304    4.5299   15.5285 H       1  UNL1        0.0000
     12 C          -1.4019    3.9722   11.2643 C.3     1  UNL1        0.0000
     13 C          -0.2075    4.9293   11.3980 C.3     1  UNL1        0.0000
     14 H          -0.5282    5.8724   11.8296 H       1  UNL1        0.0000
     15 H           0.2312    5.1213   10.4217 H       1  UNL1        0.0000
     16 H           0.5511    4.4941   12.0437 H       1  UNL1        0.0000
     17 C          -2.4680    4.6270   10.3670 C.3     1  UNL1        0.0000
     18 H          -3.3653    4.0071   10.3641 H       1  UNL1        0.0000
     19 H          -2.1014    4.7338    9.3480 H       1  UNL1        0.0000
     20 H          -2.7294    5.6098   10.7459 H       1  UNL1        0.0000
     21 C          -0.9228    2.6892   10.5617 C.3     1  UNL1        0.0000
     22 H          -0.1068    2.2369   11.1195 H       1  UNL1        0.0000
     23 H          -0.5650    2.9217    9.5602 H       1  UNL1        0.0000
     24 H          -1.7529    1.9794   10.4954 H       1  UNL1        0.0000
     25 C          -4.1184    3.9448   15.8254 C.3     1  UNL1        0.0000
     26 C          -5.5584    4.1132   15.3343 C.3     1  UNL1        0.0000
     27 H          -5.6164    4.9148   14.6019 H       1  UNL1        0.0000
     28 H          -6.2171    4.3455   16.1674 H       1  UNL1        0.0000
     29 H          -5.8989    3.1886   14.8660 H       1  UNL1        0.0000
     30 C          -3.6667    5.2021   16.5688 C.3     1  UNL1        0.0000
     31 H          -2.6304    5.1068   16.8771 H       1  UNL1        0.0000
     32 H          -4.2807    5.3281   17.4572 H       1  UNL1        0.0000
     33 H          -3.7744    6.0860   15.9521 H       1  UNL1        0.0000
     34 C          -4.0522    2.7727   16.8148 C.3     1  UNL1        0.0000
     35 H          -4.3288    1.8446   16.3215 H       1  UNL1        0.0000
     36 H          -4.7510    2.9507   17.6278 H       1  UNL1        0.0000
     37 H          -3.0528    2.6812   17.2341 H       1  UNL1        0.0000
@<TRIPOS>BOND
     1    19    17    1
     2    23    21    1
     3    18    17    1
     4    17    20    1
     5    17    12    1
     6    15    13    1
     7    24    21    1
     8    21    22    1
     9    21    12    1
    10    12    13    1
    11    12     3    1
    12    13    14    1
    13    13    16    1
    14     3     1    1
    15     6     4    1
    16     5     4    1
    17     4     1    1
    18     4     7    1
    19     1     2    1
    20     1     8    1
    21    10     8    1
    22    27    26    1
    23     2    25    1
    24     8     9    1
    25     8    11    1
    26    29    26    1
    27    26    25    1
    28    26    28    1
    29    25    30    1
    30    25    34    1
    31    33    30    1
    32    35    34    1
    33    30    31    1
    34    30    32    1
    35    34    37    1
    36    34    36    1
