@<TRIPOS>MOLECULE
2,3
 38 38 0 0 0
SMALL
GASTEIGER

@<TRIPOS>ATOM
      1 SI          8.9575   -3.3418    3.7025 Si      1  UNL1        0.0000
      2 O           9.6367   -2.1379    2.7622 O.3     1  UNL1        0.0000
      3 N           7.9572   -2.2788    4.5754 N.pl3   1  UNL1        0.0000
      4 C           8.0501   -4.7127    2.6930 C.3     1  UNL1        0.0000
      5 H           7.4450   -4.3239    1.8803 H       1  UNL1        0.0000
      6 H           7.3912   -5.2644    3.3567 H       1  UNL1        0.0000
      7 H           8.7466   -5.4321    2.2724 H       1  UNL1        0.0000
      8 C          10.1989   -4.3087    4.8041 C.3     1  UNL1        0.0000
      9 H          10.7081   -5.1107    4.2798 H       1  UNL1        0.0000
     10 H           9.6485   -4.7597    5.6243 H       1  UNL1        0.0000
     11 H          10.9532   -3.6606    5.2395 H       1  UNL1        0.0000
     12 C           5.3167   -4.2557    9.2443 C.3     1  UNL1        0.0000
     13 H           6.0339   -4.6004    9.9859 H       1  UNL1        0.0000
     14 H           4.6374   -5.0711    9.0055 H       1  UNL1        0.0000
     15 H           4.7318   -3.4499    9.6904 H       1  UNL1        0.0000
     16 C          10.4902   -2.2959    1.6259 C.3     1  UNL1        0.0000
     17 C          11.5121   -3.4079    1.8623 C.3     1  UNL1        0.0000
     18 H          12.0380   -3.2357    2.7965 H       1  UNL1        0.0000
     19 H          12.2316   -3.4305    1.0476 H       1  UNL1        0.0000
     20 H          11.0164   -4.3723    1.9143 H       1  UNL1        0.0000
     21 C          11.2163   -0.9603    1.4309 C.3     1  UNL1        0.0000
     22 H          10.5014   -0.1899    1.1489 H       1  UNL1        0.0000
     23 H          11.9705   -1.0467    0.6523 H       1  UNL1        0.0000
     24 H          11.6877   -0.6710    2.3662 H       1  UNL1        0.0000
     25 C           9.6496   -2.6087    0.3846 C.3     1  UNL1        0.0000
     26 H           9.1796   -3.5824    0.4785 H       1  UNL1        0.0000
     27 H          10.2814   -2.6067   -0.4996 H       1  UNL1        0.0000
     28 H           8.8806   -1.8485    0.2692 H       1  UNL1        0.0000
     29 C           7.3023   -2.7602    5.7026 C.ar    1  UNL1        0.0000
     30 C           6.0380   -3.3525    5.6330 C.ar    1  UNL1        0.0000
     31 H           5.5551   -3.4449    4.6719 H       1  UNL1        0.0000
     32 C           5.4090   -3.8342    6.7659 C.ar    1  UNL1        0.0000
     33 H           4.4277   -4.2815    6.6790 H       1  UNL1        0.0000
     34 C           6.0171   -3.7643    8.0126 C.ar    1  UNL1        0.0000
     35 C           7.2948   -3.2215    8.0817 C.ar    1  UNL1        0.0000
     36 H           7.8059   -3.1871    9.0344 H       1  UNL1        0.0000
     37 C           7.9289   -2.7389    6.9539 C.ar    1  UNL1        0.0000
     38 H           8.9404   -2.3611    7.0084 H       1  UNL1        0.0000
@<TRIPOS>BOND
     1    27    25    1
     2    28    25    1
     3    25    26    1
     4    25    16    1
     5    23    21    1
     6    19    17    1
     7    22    21    1
     8    21    16    1
     9    21    24    1
    10    16    17    1
    11    16     2    1
    12    17    20    1
    13    17    18    1
    14     5     4    1
    15     7     4    1
    16     4     6    1
    17     4     1    1
    18     2     1    1
    19     1     3    1
    20     1     8    1
    21     9     8    1
    22     3    29    1
    23    31    30    1
    24     8    11    1
    25     8    10    1
    26    30    29   ar
    27    30    32   ar
    28    29    37   ar
    29    33    32    1
    30    32    34   ar
    31    37    38    1
    32    37    35   ar
    33    34    35   ar
    34    34    12    1
    35    35    36    1
    36    14    12    1
    37    12    15    1
    38    12    13    1
