@<TRIPOS>MOLECULE
2,3
 37 36 0 0 0
SMALL
GASTEIGER

@<TRIPOS>ATOM
      1 SI         -2.4353   -0.5152   11.9640 Si      1  UNL1        0.0000
      2 O          -1.8639    0.6123   13.1251 O.3     1  UNL1        0.0000
      3 N          -3.4060    0.6755   11.2392 N.3     1  UNL1        0.0000
      4 C          -0.9562   -1.1612   10.9177 C.3     1  UNL1        0.0000
      5 H          -0.2011   -0.3968   10.7636 H       1  UNL1        0.0000
      6 H          -1.2984   -1.4768    9.9394 H       1  UNL1        0.0000
      7 H          -0.4758   -2.0214   11.3723 H       1  UNL1        0.0000
      8 C          -3.2228   -2.0445   12.8290 C.3     1  UNL1        0.0000
      9 H          -2.4902   -2.7868   13.1322 H       1  UNL1        0.0000
     10 H          -3.9132   -2.5445   12.1567 H       1  UNL1        0.0000
     11 H          -3.7929   -1.7462   13.7055 H       1  UNL1        0.0000
     12 C          -4.4623    0.4091   10.2719 C.3     1  UNL1        0.0000
     13 C          -4.1466   -0.8141    9.3984 C.3     1  UNL1        0.0000
     14 H          -3.2081   -0.6590    8.8734 H       1  UNL1        0.0000
     15 H          -4.9363   -0.9646    8.6665 H       1  UNL1        0.0000
     16 H          -4.0592   -1.7084   10.0066 H       1  UNL1        0.0000
     17 C          -5.7938    0.1696   11.0071 C.3     1  UNL1        0.0000
     18 H          -5.6969   -0.6804   11.6805 H       1  UNL1        0.0000
     19 H          -6.5923   -0.0312   10.2959 H       1  UNL1        0.0000
     20 H          -6.0640    1.0509   11.5945 H       1  UNL1        0.0000
     21 C          -4.6130    1.6216    9.3344 C.3     1  UNL1        0.0000
     22 H          -4.9523    2.4936    9.8917 H       1  UNL1        0.0000
     23 H          -5.3496    1.4044    8.5637 H       1  UNL1        0.0000
     24 H          -3.6610    1.8404    8.8526 H       1  UNL1        0.0000
     25 C          -0.8768    0.4922   14.1449 C.3     1  UNL1        0.0000
     26 C          -0.3846   -0.9407   14.3329 C.3     1  UNL1        0.0000
     27 H          -1.2070   -1.5839   14.6282 H       1  UNL1        0.0000
     28 H           0.3713   -0.9628   15.1144 H       1  UNL1        0.0000
     29 H           0.0555   -1.3196   13.4171 H       1  UNL1        0.0000
     30 C          -1.5349    0.9802   15.4385 C.3     1  UNL1        0.0000
     31 H          -1.8262    2.0246   15.3119 H       1  UNL1        0.0000
     32 H          -0.8500    0.8959   16.2797 H       1  UNL1        0.0000
     33 H          -2.4230    0.3803   15.6427 H       1  UNL1        0.0000
     34 C           0.2926    1.4135   13.7781 C.3     1  UNL1        0.0000
     35 H           0.8294    1.0147   12.9196 H       1  UNL1        0.0000
     36 H           0.9873    1.4996   14.6099 H       1  UNL1        0.0000
     37 H          -0.1029    2.4014   13.5330 H       1  UNL1        0.0000
@<TRIPOS>BOND
     1    23    21    1
     2    15    13    1
     3    24    21    1
     4    14    13    1
     5    21    22    1
     6    21    12    1
     7    13    16    1
     8    13    12    1
     9     6     4    1
    10    12    17    1
    11    12     3    1
    12    19    17    1
    13     5     4    1
    14     4     7    1
    15     4     1    1
    16    17    20    1
    17    17    18    1
    18     3     1    1
    19     1     8    1
    20     1     2    1
    21    10     8    1
    22     8     9    1
    23     8    11    1
    24    35    34    1
    25     2    25    1
    26    29    26    1
    27    37    34    1
    28    34    25    1
    29    34    36    1
    30    25    26    1
    31    25    30    1
    32    26    27    1
    33    26    28    1
    34    31    30    1
    35    30    33    1
    36    30    32    1
