@<TRIPOS>MOLECULE
1,26
 37 38 0 0 0
SMALL
GASTEIGER

@<TRIPOS>ATOM
      1 O          -5.2834    4.6619    4.0833 O.3     1  UNL1       -0.2872
      2 C          -5.6736    5.8741    4.2220 C.ar    1  UNL1        0.1877
      3 C          -5.0167    6.9583    3.5352 C.ar    1  UNL1        0.0050
      4 C          -5.4489    8.2403    3.7546 C.ar    1  UNL1       -0.0544
      5 H          -4.9662    9.0648    3.2561 H       1  UNL1        0.0622
      6 C          -6.5132    8.5501    4.6177 C.ar    1  UNL1       -0.0609
      7 H          -6.8026    9.5805    4.7528 H       1  UNL1        0.0618
      8 C          -7.1661    7.5501    5.2665 C.ar    1  UNL1       -0.0530
      9 H          -7.9907    7.7690    5.9293 H       1  UNL1        0.0622
     10 C          -6.7808    6.1978    5.0885 C.ar    1  UNL1        0.0237
     11 C          -3.8562    6.6535    2.5958 C.3     1  UNL1       -0.0090
     12 C          -4.3375    5.6977    1.4951 C.3     1  UNL1       -0.0559
     13 H          -4.6877    4.7640    1.9267 H       1  UNL1        0.0238
     14 H          -3.5241    5.4792    0.8061 H       1  UNL1        0.0238
     15 H          -5.1547    6.1457    0.9321 H       1  UNL1        0.0238
     16 C          -3.2966    7.9076    1.9157 C.3     1  UNL1       -0.0559
     17 H          -2.8968    8.6089    2.6442 H       1  UNL1        0.0238
     18 H          -4.0558    8.4045    1.3160 H       1  UNL1        0.0238
     19 H          -2.4840    7.6181    1.2527 H       1  UNL1        0.0238
     20 C          -2.7205    6.0048    3.3992 C.3     1  UNL1       -0.0559
     21 H          -2.3606    6.6931    4.1612 H       1  UNL1        0.0238
     22 H          -1.8919    5.7549    2.7397 H       1  UNL1        0.0238
     23 H          -3.0667    5.0997    3.8874 H       1  UNL1        0.0238
     24 C          -7.5450    5.2324    5.7653 C.3     1  UNL1        0.0956
     25 H          -8.3513    5.6516    6.3729 H       1  UNL1        0.0591
     26 N          -7.4503    3.9230    5.6915 N.pl3   1  UNL1       -0.2345
     27 C          -8.2786    3.1712    6.4984 C.ar    1  UNL1        0.1247
     28 C          -8.6109    3.4785    7.8306 C.ar    1  UNL1        0.1867
     29 C          -9.4592    2.6720    8.5785 C.ar    1  UNL1        0.1983
     30 C         -10.0232    1.5288    8.0194 C.ar    1  UNL1        0.1992
     31 C          -9.6911    1.1804    6.7109 C.ar    1  UNL1        0.1983
     32 C          -8.8267    1.9854    5.9913 C.ar    1  UNL1        0.1867
     33 F          -8.0641    4.5451    8.4331 F       1  UNL1       -0.2003
     34 F          -9.7427    3.0016    9.8393 F       1  UNL1       -0.1993
     35 F         -10.8596    0.7709    8.7294 F       1  UNL1       -0.1993
     36 F         -10.2109    0.0845    6.1577 F       1  UNL1       -0.1993
     37 F          -8.4846    1.6408    4.7230 F       1  UNL1       -0.2003
@<TRIPOS>BOND
     1    14    12    1
     2    15    12    1
     3    19    16    1
     4    18    16    1
     5    12    13    1
     6    12    11    1
     7    16    11    1
     8    16    17    1
     9    11    20    1
    10    11     3    1
    11    22    20    1
    12     5     4    1
    13    20    23    1
    14    20    21    1
    15     3     4   ar
    16     3     2   ar
    17     4     6   ar
    18     1     2    1
    19     2    10   ar
    20     6     7    1
    21     6     8   ar
    22    37    32    1
    23    10     8   ar
    24    10    24    1
    25     8     9    1
    26    26    24    1
    27    26    27    1
    28    24    25    1
    29    32    27   ar
    30    32    31   ar
    31    36    31    1
    32    27    28   ar
    33    31    30   ar
    34    28    33    1
    35    28    29   ar
    36    30    29   ar
    37    30    35    1
    38    29    34    1
