@<TRIPOS>MOLECULE
1,2
 46 47 0 0 0
SMALL
GASTEIGER

@<TRIPOS>ATOM
      1 O           3.4911    1.6735    1.7806 O.3     1  UNL1       -0.2872
      2 N           3.1877    0.7768   -0.7807 N.pl3   1  UNL1       -0.2398
      3 C           3.0537    0.5359    2.1951 C.ar    1  UNL1        0.1877
      4 C           2.9179    0.2422    3.5933 C.ar    1  UNL1        0.0050
      5 C           3.3074    1.2993    4.6195 C.3     1  UNL1       -0.0090
      6 C           2.4334    2.5458    4.4228 C.3     1  UNL1       -0.0559
      7 H           2.7235    3.3196    5.1311 H       1  UNL1        0.0238
      8 H           1.3863    2.2991    4.5892 H       1  UNL1        0.0238
      9 H           2.5425    2.9371    3.4141 H       1  UNL1        0.0238
     10 C           4.7878    1.6611    4.4336 C.3     1  UNL1       -0.0559
     11 H           5.4093    0.7773    4.5677 H       1  UNL1        0.0238
     12 H           5.0837    2.4078    5.1676 H       1  UNL1        0.0238
     13 H           4.9621    2.0653    3.4397 H       1  UNL1        0.0238
     14 C           3.1214    0.8201    6.0639 C.3     1  UNL1       -0.0559
     15 H           3.7402   -0.0493    6.2748 H       1  UNL1        0.0238
     16 H           2.0812    0.5784    6.2703 H       1  UNL1        0.0238
     17 H           3.4200    1.6161    6.7431 H       1  UNL1        0.0238
     18 C           2.4387   -0.9908    3.9643 C.ar    1  UNL1       -0.0544
     19 H           2.3217   -1.2331    5.0082 H       1  UNL1        0.0622
     20 C           2.0859   -1.9777    3.0363 C.ar    1  UNL1       -0.0609
     21 H           1.7147   -2.9292    3.3860 H       1  UNL1        0.0618
     22 C           2.2191   -1.7270    1.7016 C.ar    1  UNL1       -0.0530
     23 H           1.9553   -2.4794    0.9705 H       1  UNL1        0.0622
     24 C           2.6963   -0.4814    1.2519 C.ar    1  UNL1        0.0237
     25 C           2.8199   -0.2938   -0.1519 C.3     1  UNL1        0.0954
     26 H           2.5736   -1.1807   -0.7515 H       1  UNL1        0.0591
     27 C           3.2568    0.6642   -2.1943 C.ar    1  UNL1        0.0543
     28 C           2.1250    0.9210   -2.9716 C.ar    1  UNL1       -0.0274
     29 C           0.8294    1.2776   -2.3074 C.3     1  UNL1       -0.0379
     30 H           0.9983    2.0208   -1.5236 H       1  UNL1        0.0278
     31 H           0.3868    0.3984   -1.8379 H       1  UNL1        0.0278
     32 H           0.1187    1.6698   -3.0315 H       1  UNL1        0.0278
     33 C           2.2273    0.8467   -4.3536 C.ar    1  UNL1       -0.0541
     34 H           1.3519    1.0515   -4.9546 H       1  UNL1        0.0623
     35 C           3.4194    0.5101   -4.9767 C.ar    1  UNL1       -0.0498
     36 C           3.5216    0.4292   -6.4703 C.3     1  UNL1       -0.0397
     37 H           3.6954   -0.6007   -6.7812 H       1  UNL1        0.0278
     38 H           4.3561    1.0289   -6.8312 H       1  UNL1        0.0278
     39 H           2.6082    0.7808   -6.9431 H       1  UNL1        0.0278
     40 C           4.5267    0.2371   -4.1835 C.ar    1  UNL1       -0.0541
     41 H           5.4600   -0.0371   -4.6555 H       1  UNL1        0.0623
     42 C           4.4641    0.3011   -2.8004 C.ar    1  UNL1       -0.0274
     43 C           5.6600   -0.0182   -1.9545 C.3     1  UNL1       -0.0379
     44 H           6.5677   -0.0168   -2.5536 H       1  UNL1        0.0278
     45 H           5.5495   -1.0045   -1.5016 H       1  UNL1        0.0278
     46 H           5.7567    0.7092   -1.1420 H       1  UNL1        0.0278
@<TRIPOS>BOND
     1    39    36    1
     2    38    36    1
     3    37    36    1
     4    36    35    1
     5    35    33   ar
     6    35    40   ar
     7    34    33    1
     8    41    40    1
     9    33    28   ar
    10    40    42   ar
    11    32    29    1
    12    28    29    1
    13    28    27   ar
    14    42    27   ar
    15    42    43    1
    16    44    43    1
    17    29    31    1
    18    29    30    1
    19    27     2    1
    20    43    45    1
    21    43    46    1
    22     2    25    1
    23    26    25    1
    24    25    24    1
    25    23    22    1
    26    24    22   ar
    27    24     3   ar
    28    22    20   ar
    29     1     3    1
    30     3     4   ar
    31    20    21    1
    32    20    18   ar
    33     9     6    1
    34    13    10    1
    35     4    18   ar
    36     4     5    1
    37    18    19    1
    38     6     8    1
    39     6     5    1
    40     6     7    1
    41    10    11    1
    42    10     5    1
    43    10    12    1
    44     5    14    1
    45    14    16    1
    46    14    15    1
    47    14    17    1
