@<TRIPOS>MOLECULE
1,26
 37 38 0 0 0
SMALL
GASTEIGER

@<TRIPOS>ATOM
      1 O          -7.2144    3.0142    2.5483 O.3     1  UNL1       -0.2872
      2 C          -7.1434    3.2313    1.2877 C.ar    1  UNL1        0.1877
      3 C          -8.1995    3.9134    0.5822 C.ar    1  UNL1        0.0050
      4 C          -8.0877    4.0856   -0.7730 C.ar    1  UNL1       -0.0544
      5 H          -8.8677    4.5911   -1.3184 H       1  UNL1        0.0622
      6 C          -6.9849    3.6269   -1.5123 C.ar    1  UNL1       -0.0609
      7 H          -6.9585    3.7880   -2.5787 H       1  UNL1        0.0618
      8 C          -5.9665    2.9898   -0.8764 C.ar    1  UNL1       -0.0530
      9 H          -5.1090    2.6335   -1.4284 H       1  UNL1        0.0622
     10 C          -6.0051    2.7803    0.5248 C.ar    1  UNL1        0.0237
     11 C          -9.4125    4.4145    1.3565 C.3     1  UNL1       -0.0090
     12 C          -8.9475    5.3937    2.4436 C.3     1  UNL1       -0.0559
     13 H          -8.4272    6.2394    1.9972 H       1  UNL1        0.0238
     14 H          -8.2721    4.9009    3.1377 H       1  UNL1        0.0238
     15 H          -9.8037    5.7708    2.9996 H       1  UNL1        0.0238
     16 C         -10.4244    5.1463    0.4681 C.3     1  UNL1       -0.0559
     17 H         -10.8232    4.4900   -0.3017 H       1  UNL1        0.0238
     18 H          -9.9801    6.0220    0.0004 H       1  UNL1        0.0238
     19 H         -11.2572    5.4822    1.0824 H       1  UNL1        0.0238
     20 C         -10.1262    3.2152    1.9955 C.3     1  UNL1       -0.0559
     21 H         -10.4796    2.5352    1.2231 H       1  UNL1        0.0238
     22 H         -10.9822    3.5552    2.5750 H       1  UNL1        0.0238
     23 H          -9.4515    2.6733    2.6500 H       1  UNL1        0.0238
     24 C          -4.8844    2.1559    1.0982 C.3     1  UNL1        0.0956
     25 H          -4.1100    1.8845    0.3759 H       1  UNL1        0.0591
     26 N          -4.6378    1.9416    2.3716 N.pl3   1  UNL1       -0.2345
     27 C          -3.4872    1.2557    2.7000 C.ar    1  UNL1        0.1247
     28 C          -2.9735    0.1491    1.9992 C.ar    1  UNL1        0.1867
     29 C          -1.8039   -0.4884    2.3929 C.ar    1  UNL1        0.1983
     30 C          -1.0893   -0.0357    3.4984 C.ar    1  UNL1        0.1992
     31 C          -1.5857    1.0418    4.2306 C.ar    1  UNL1        0.1983
     32 C          -2.7640    1.6480    3.8344 C.ar    1  UNL1        0.1867
     33 F          -3.6422   -0.3548    0.9511 F       1  UNL1       -0.2003
     34 F          -1.3576   -1.5370    1.7002 F       1  UNL1       -0.1993
     35 F           0.0479   -0.6316    3.8587 F       1  UNL1       -0.1993
     36 F          -0.9233    1.4877    5.2981 F       1  UNL1       -0.1993
     37 F          -3.2611    2.6866    4.5543 F       1  UNL1       -0.2003
@<TRIPOS>BOND
     1     7     6    1
     2     6     8   ar
     3     6     4   ar
     4     9     8    1
     5     5     4    1
     6     8    10   ar
     7     4     3   ar
     8    17    16    1
     9    18    16    1
    10    25    24    1
    11    16    19    1
    12    16    11    1
    13    10    24    1
    14    10     2   ar
    15     3     2   ar
    16     3    11    1
    17    33    28    1
    18    24    26    1
    19    21    20    1
    20     2     1    1
    21    11    20    1
    22    11    12    1
    23    34    29    1
    24    20    22    1
    25    20    23    1
    26    13    12    1
    27    28    29   ar
    28    28    27   ar
    29    26    27    1
    30    29    30   ar
    31    12    15    1
    32    12    14    1
    33    27    32   ar
    34    30    35    1
    35    30    31   ar
    36    32    31   ar
    37    32    37    1
    38    31    36    1
