@<TRIPOS>MOLECULE
3,5
 41 42 0 0 0
SMALL
GASTEIGER

@<TRIPOS>ATOM
      1 SI         14.2110    4.2082    3.9148 Si      1  UNL1        0.0000
      2 SI         13.5990    1.5126    2.6305 Si      1  UNL1        0.0000
      3 O          12.2120    4.5286    5.8918 O.2     1  UNL1        0.0000
      4 O          11.5746    0.2561    4.0308 O.2     1  UNL1        0.0000
      5 N          13.1252    3.0094    3.3331 N.3     1  UNL1        0.0000
      6 C          10.6489    4.9012    7.7485 C.3     1  UNL1        0.0000
      7 H          10.2753    5.7481    8.3173 H       1  UNL1        0.0000
      8 H          10.9445    4.1178    8.4480 H       1  UNL1        0.0000
      9 H           9.8488    4.5064    7.1217 H       1  UNL1        0.0000
     10 C          11.8042    5.3291    6.9139 C.ar    1  UNL1        0.0000
     11 C          12.5990    6.4328    6.9817 C.ar    1  UNL1        0.0000
     12 H          12.5154    7.2392    7.6822 H       1  UNL1        0.0000
     13 C          13.5527    6.2985    5.9445 C.ar    1  UNL1        0.0000
     14 H          14.3348    6.9889    5.7024 H       1  UNL1        0.0000
     15 C          13.2874    5.1287    5.2968 C.ar    1  UNL1        0.0000
     16 C          14.7721    5.4812    2.6041 C.3     1  UNL1        0.0000
     17 H          15.2801    4.9832    1.7848 H       1  UNL1        0.0000
     18 H          15.4672    6.1940    3.0350 H       1  UNL1        0.0000
     19 H          13.9405    6.0391    2.1881 H       1  UNL1        0.0000
     20 C          15.8023    3.5845    4.7817 C.3     1  UNL1        0.0000
     21 H          15.6303    2.6747    5.3475 H       1  UNL1        0.0000
     22 H          16.1878    4.3323    5.4678 H       1  UNL1        0.0000
     23 H          16.5792    3.3773    4.0556 H       1  UNL1        0.0000
     24 C          15.4536    1.2059    2.3528 C.3     1  UNL1        0.0000
     25 H          15.8996    2.0415    1.8266 H       1  UNL1        0.0000
     26 H          15.6171    0.3142    1.7583 H       1  UNL1        0.0000
     27 H          15.9840    1.0832    3.2881 H       1  UNL1        0.0000
     28 C          12.7029    1.0422    0.9983 C.3     1  UNL1        0.0000
     29 H          12.9399    1.7029    0.1724 H       1  UNL1        0.0000
     30 H          11.6226    1.0326    1.1266 H       1  UNL1        0.0000
     31 H          12.9965    0.0379    0.7045 H       1  UNL1        0.0000
     32 C          12.9243    0.1868    3.8077 C.ar    1  UNL1        0.0000
     33 C          13.4166   -0.9369    4.4021 C.ar    1  UNL1        0.0000
     34 H          14.4397   -1.2539    4.3974 H       1  UNL1        0.0000
     35 C          12.3250   -1.5977    5.0126 C.ar    1  UNL1        0.0000
     36 H          12.3494   -2.5172    5.5622 H       1  UNL1        0.0000
     37 C          11.2229   -0.8405    4.7506 C.ar    1  UNL1        0.0000
     38 C           9.7900   -1.0611    5.0748 C.3     1  UNL1        0.0000
     39 H           9.6108   -0.9700    6.1455 H       1  UNL1        0.0000
     40 H           9.4846   -2.0589    4.7635 H       1  UNL1        0.0000
     41 H           9.1934   -0.3184    4.5523 H       1  UNL1        0.0000
@<TRIPOS>BOND
     1    29    28    1
     2    31    28    1
     3    28    30    1
     4    28     2    1
     5    26    24    1
     6    17    16    1
     7    25    24    1
     8    19    16    1
     9    24     2    1
    10    24    27    1
    11    16    18    1
    12    16     1    1
    13     2     5    1
    14     2    32    1
    15     5     1    1
    16    32     4   ar
    17    32    33   ar
    18     1    20    1
    19     1    15    1
    20     4    37   ar
    21    23    20    1
    22    34    33    1
    23    33    35   ar
    24    41    38    1
    25    37    35   ar
    26    37    38    1
    27    40    38    1
    28    20    21    1
    29    20    22    1
    30    35    36    1
    31    38    39    1
    32    15     3   ar
    33    15    13   ar
    34    14    13    1
    35     3    10   ar
    36    13    11   ar
    37    10    11   ar
    38    10     6    1
    39    11    12    1
    40     9     6    1
    41     6     7    1
    42     6     8    1
