@<TRIPOS>MOLECULE
3,5
 41 42 0 0 0
SMALL
GASTEIGER

@<TRIPOS>ATOM
      1 SI          7.6604    3.2120   20.7743 Si      1  UNL1        0.0000
      2 SI          8.8450    0.7311   19.6858 Si      1  UNL1        0.0000
      3 O           8.6708    5.3646   19.2200 O.2     1  UNL1        0.0000
      4 O          11.1810    1.3356   18.2519 O.2     1  UNL1        0.0000
      5 N           8.8839    2.4361   19.8576 N.3     1  UNL1        0.0000
      6 C           9.2022    7.2534   17.7207 C.3     1  UNL1        0.0000
      7 H           8.7611    7.1141   16.7325 H       1  UNL1        0.0000
      8 H          10.1929    6.8063   17.7020 H       1  UNL1        0.0000
      9 H           9.2898    8.3220   17.9027 H       1  UNL1        0.0000
     10 C           8.3603    6.6140   18.7668 C.ar    1  UNL1        0.0000
     11 C           7.2135    7.0487   19.3577 C.ar    1  UNL1        0.0000
     12 H           6.7331    7.9930   19.1972 H       1  UNL1        0.0000
     13 C           6.7820    6.0044   20.2082 C.ar    1  UNL1        0.0000
     14 H           5.9077    6.0027   20.8265 H       1  UNL1        0.0000
     15 C           7.6852    4.9908   20.0997 C.ar    1  UNL1        0.0000
     16 C           7.9481    3.1954   22.6659 C.3     1  UNL1        0.0000
     17 H           7.5901    2.2630   23.0896 H       1  UNL1        0.0000
     18 H           7.4203    4.0060   23.1580 H       1  UNL1        0.0000
     19 H           9.0008    3.2844   22.9149 H       1  UNL1        0.0000
     20 C           5.8745    2.6068   20.4871 C.3     1  UNL1        0.0000
     21 H           5.6068    2.6157   19.4363 H       1  UNL1        0.0000
     22 H           5.1629    3.2322   21.0149 H       1  UNL1        0.0000
     23 H           5.7543    1.5933   20.8523 H       1  UNL1        0.0000
     24 C           8.6461   -0.2801   21.2903 C.3     1  UNL1        0.0000
     25 H           9.2720    0.0951   22.0916 H       1  UNL1        0.0000
     26 H           8.8918   -1.3251   21.1351 H       1  UNL1        0.0000
     27 H           7.6172   -0.2327   21.6299 H       1  UNL1        0.0000
     28 C           7.5407    0.0654   18.4498 C.3     1  UNL1        0.0000
     29 H           6.5354    0.1937   18.8352 H       1  UNL1        0.0000
     30 H           7.6914   -0.9938   18.2657 H       1  UNL1        0.0000
     31 H           7.5948    0.5764   17.4940 H       1  UNL1        0.0000
     32 C          10.5130    0.3223   18.8839 C.ar    1  UNL1        0.0000
     33 C          11.1150   -0.8622   18.5819 C.ar    1  UNL1        0.0000
     34 H          10.8151   -1.8275   18.9352 H       1  UNL1        0.0000
     35 C          12.1980   -0.5766   17.7185 C.ar    1  UNL1        0.0000
     36 H          12.8808   -1.2774   17.2819 H       1  UNL1        0.0000
     37 C          12.1950    0.7725   17.5331 C.ar    1  UNL1        0.0000
     38 C          13.0561    1.6315   16.6751 C.3     1  UNL1        0.0000
     39 H          14.0135    1.8390   17.1547 H       1  UNL1        0.0000
     40 H          12.5471    2.5715   16.4719 H       1  UNL1        0.0000
     41 H          13.2545    1.1269   15.7318 H       1  UNL1        0.0000
@<TRIPOS>BOND
     1    41    38    1
     2    40    38    1
     3    38    39    1
     4    38    37    1
     5     7     6    1
     6    36    35    1
     7    31    28    1
     8    37    35   ar
     9    37     4   ar
    10     8     6    1
    11    35    33   ar
    12     6     9    1
    13     6    10    1
    14     4    32   ar
    15    30    28    1
    16    28    29    1
    17    28     2    1
    18    33    32   ar
    19    33    34    1
    20    10     3   ar
    21    10    11   ar
    22    32     2    1
    23    12    11    1
    24     3    15   ar
    25    11    13   ar
    26    21    20    1
    27     2     5    1
    28     2    24    1
    29     5     1    1
    30    15    13   ar
    31    15     1    1
    32    13    14    1
    33    20     1    1
    34    20    23    1
    35    20    22    1
    36     1    16    1
    37    26    24    1
    38    24    27    1
    39    24    25    1
    40    16    19    1
    41    16    17    1
    42    16    18    1
