@<TRIPOS>MOLECULE
1,3
 29 29 0 0 0
SMALL
GASTEIGER

@<TRIPOS>ATOM
      1 O           6.8551    2.3293   12.7146 O.3     1  UNL1       -0.2199
      2 O           7.5800    5.1570    9.9041 O.3     1  UNL1       -0.3749
      3 N           6.1438    4.7957   12.2400 N.pl3   1  UNL1       -0.2529
      4 C           5.2884    0.7663   13.6019 C.3     1  UNL1       -0.0259
      5 H           4.5966    0.2866   12.9125 H       1  UNL1        0.0263
      6 H           4.8076    0.8377   14.5743 H       1  UNL1        0.0263
      7 H           6.1850    0.1581   13.6833 H       1  UNL1        0.0263
      8 C           5.6566    2.1440   13.0906 C.3     1  UNL1        0.1565
      9 C           4.6752    3.1248   13.0342 C.2     1  UNL1       -0.0284
     10 H           3.6747    2.8691   13.3418 H       1  UNL1        0.0618
     11 C           4.9286    4.4235   12.5699 C.2     1  UNL1        0.0212
     12 C           3.7495    5.3696   12.5082 C.3     1  UNL1       -0.0252
     13 H           3.8792    6.1937   13.2099 H       1  UNL1        0.0290
     14 H           2.8382    4.8414   12.7708 H       1  UNL1        0.0290
     15 H           3.6334    5.7825   11.5075 H       1  UNL1        0.0290
     16 C           6.4098    6.1308   11.7623 C.3     1  UNL1        0.0572
     17 H           7.3612    6.4576   12.1935 H       1  UNL1        0.0507
     18 H           5.6351    6.8504   12.0449 H       1  UNL1        0.0507
     19 C           6.5760    6.1136   10.2304 C.3     1  UNL1        0.0760
     20 H           5.6391    5.7743    9.7724 H       1  UNL1        0.0612
     21 C           7.0562    7.4585    9.6770 C.3     1  UNL1       -0.0230
     22 H           6.7103    7.5906    8.6511 H       1  UNL1        0.0291
     23 H           6.7060    8.2963   10.2762 H       1  UNL1        0.0291
     24 C           8.5746    7.2938    9.7051 C.3     1  UNL1       -0.0271
     25 H           9.0841    7.9334    8.9883 H       1  UNL1        0.0288
     26 H           8.9634    7.5017   10.7017 H       1  UNL1        0.0288
     27 C           8.7281    5.8121    9.3736 C.3     1  UNL1        0.0482
     28 H           8.7449    5.6584    8.2858 H       1  UNL1        0.0560
     29 H           9.6088    5.3497    9.8208 H       1  UNL1        0.0560
@<TRIPOS>BOND
     1    28    27    1
     2    22    21    1
     3    25    24    1
     4    27    24    1
     5    27    29    1
     6    27     2    1
     7    21    24    1
     8    21    19    1
     9    21    23    1
    10    24    26    1
    11    20    19    1
    12     2    19    1
    13    19    16    1
    14    15    12    1
    15    16    18    1
    16    16    17    1
    17    16     3    1
    18     3    11    1
    19    12    11    1
    20    12    14    1
    21    12    13    1
    22    11     9    2
    23     1     8    1
    24     5     4    1
    25     9     8    1
    26     9    10    1
    27     8     4    1
    28     4     7    1
    29     4     6    1
