@<TRIPOS>MOLECULE
1,15
 29 28 0 0 0
SMALL
GASTEIGER

@<TRIPOS>ATOM
      1 O          -1.1143   13.2911    6.4311 O.3     1  UNL1       -0.2199
      2 N          -2.5581    9.7123    4.7646 N.3     1  UNL1       -0.3068
      3 C          -3.4694    9.2822    5.8112 C.3     1  UNL1       -0.0130
      4 H          -2.9182    8.6950    6.5413 H       1  UNL1        0.0391
      5 H          -4.2941    8.6679    5.4166 H       1  UNL1        0.0391
      6 H          -3.8767   10.1514    6.3200 H       1  UNL1        0.0391
      7 C          -5.3083   13.7781    5.3651 C.3     1  UNL1       -0.0252
      8 H          -5.4813   13.9016    4.2965 H       1  UNL1        0.0290
      9 H          -5.6135   14.6873    5.8739 H       1  UNL1        0.0290
     10 H          -5.9396   12.9604    5.7139 H       1  UNL1        0.0290
     11 C          -1.8353    8.5770    4.2208 C.3     1  UNL1       -0.0130
     12 H          -1.0863    8.9362    3.5196 H       1  UNL1        0.0391
     13 H          -2.5062    7.8674    3.7108 H       1  UNL1        0.0391
     14 H          -1.3234    8.0588    5.0269 H       1  UNL1        0.0391
     15 N          -3.2388   12.4712    5.0667 N.pl3   1  UNL1       -0.2542
     16 C          -3.2002   14.3446    6.5357 C.2     1  UNL1       -0.0284
     17 H          -3.7647   15.1503    6.9759 H       1  UNL1        0.0618
     18 C          -1.2647   15.1756    7.8851 C.3     1  UNL1       -0.0259
     19 H          -1.7557   15.0751    8.8509 H       1  UNL1        0.0263
     20 H          -1.3959   16.1987    7.5402 H       1  UNL1        0.0263
     21 H          -0.2050   14.9654    8.0005 H       1  UNL1        0.0263
     22 C          -1.8666   14.2032    6.8911 C.3     1  UNL1        0.1565
     23 C          -4.0222   11.6374    4.1765 C.3     1  UNL1        0.0437
     24 H          -4.3268   12.2097    3.2877 H       1  UNL1        0.0494
     25 H          -4.9436   11.3013    4.6714 H       1  UNL1        0.0494
     26 C          -3.8523   13.4844    5.6404 C.2     1  UNL1        0.0212
     27 C          -3.2489   10.4117    3.6890 C.3     1  UNL1        0.0157
     28 H          -3.9628    9.7423    3.1720 H       1  UNL1        0.0442
     29 H          -2.4870   10.7249    2.9705 H       1  UNL1        0.0442
@<TRIPOS>BOND
     1    29    27    1
     2    28    27    1
     3    24    23    1
     4    12    11    1
     5    27    23    1
     6    27     2    1
     7    13    11    1
     8    23    25    1
     9    23    15    1
    10    11     2    1
    11    11    14    1
    12     8     7    1
    13     2     3    1
    14    15    26    1
    15     7    26    1
    16     7    10    1
    17     7     9    1
    18     5     3    1
    19    26    16    2
    20     3     6    1
    21     3     4    1
    22     1    22    1
    23    16    22    1
    24    16    17    1
    25    22    18    1
    26    20    18    1
    27    18    21    1
    28    18    19    1
