@<TRIPOS>MOLECULE
1,2
 67 68 0 0 0
SMALL
GASTEIGER

@<TRIPOS>ATOM
      1 O           1.0916    3.9152   -0.7438 O.3     1  UNL1       -0.2872
      2 N           2.2896    1.6484   -2.0718 N.pl3   1  UNL1       -0.2398
      3 C           0.3354    4.0025   -1.7848 C.ar    1  UNL1        0.1877
      4 C          -0.6113    5.0729   -1.9567 C.ar    1  UNL1        0.0053
      5 C          -1.4433    5.0662   -3.0467 C.ar    1  UNL1       -0.0507
      6 H          -2.1527    5.8678   -3.1569 H       1  UNL1        0.0625
      7 C          -1.4369    4.0753   -4.0445 C.ar    1  UNL1       -0.0412
      8 C          -0.5154    3.0754   -3.9139 C.ar    1  UNL1       -0.0493
      9 H          -0.4384    2.2936   -4.6536 H       1  UNL1        0.0625
     10 C           0.3827    3.0172   -2.8251 C.ar    1  UNL1        0.0240
     11 C           1.2972    1.9309   -2.8596 C.3     1  UNL1        0.0954
     12 H           1.1341    1.2513   -3.7070 H       1  UNL1        0.0591
     13 C           2.9787    0.4547   -2.4567 C.ar    1  UNL1        0.0554
     14 C           2.4701   -0.7934   -2.0792 C.ar    1  UNL1       -0.0220
     15 C           3.0928   -1.9421   -2.5499 C.ar    1  UNL1       -0.0565
     16 H           2.7008   -2.9094   -2.2756 H       1  UNL1        0.0621
     17 C           4.1977   -1.8655   -3.3726 C.ar    1  UNL1       -0.0611
     18 H           4.6664   -2.7672   -3.7374 H       1  UNL1        0.0618
     19 C           4.7055   -0.6293   -3.7258 C.ar    1  UNL1       -0.0565
     20 H           5.5736   -0.5801   -4.3628 H       1  UNL1        0.0621
     21 C           4.1038    0.5418   -3.2904 C.ar    1  UNL1       -0.0220
     22 C           1.2681   -0.9074   -1.1716 C.3     1  UNL1       -0.0197
     23 H           1.0067    0.0983   -0.8244 H       1  UNL1        0.0344
     24 C           0.0699   -1.4808   -1.9326 C.3     1  UNL1       -0.0586
     25 H          -0.2111   -0.8264   -2.7553 H       1  UNL1        0.0235
     26 H          -0.7847   -1.5841   -1.2672 H       1  UNL1        0.0235
     27 H           0.3058   -2.4613   -2.3400 H       1  UNL1        0.0235
     28 C           1.5899   -1.7593    0.0583 C.3     1  UNL1       -0.0586
     29 H           1.7723   -2.7953   -0.2165 H       1  UNL1        0.0235
     30 H           0.7578   -1.7351    0.7583 H       1  UNL1        0.0235
     31 H           2.4729   -1.3745    0.5626 H       1  UNL1        0.0235
     32 C           4.6681    1.8959   -3.6537 C.3     1  UNL1       -0.0197
     33 H           3.8421    2.6138   -3.6964 H       1  UNL1        0.0344
     34 C           5.3709    1.9243   -5.0112 C.3     1  UNL1       -0.0586
     35 H           6.3166    1.3888   -4.9812 H       1  UNL1        0.0235
     36 H           5.5823    2.9547   -5.2884 H       1  UNL1        0.0235
     37 H           4.7430    1.4835   -5.7825 H       1  UNL1        0.0235
     38 C           5.6360    2.3289   -2.5462 C.3     1  UNL1       -0.0586
     39 H           5.1146    2.4126   -1.5824 H       1  UNL1        0.0235
     40 H           6.0692    3.2977   -2.7812 H       1  UNL1        0.0235
     41 H           6.4368    1.5978   -2.4467 H       1  UNL1        0.0235
     42 C          -0.6826    6.2006   -0.9336 C.3     1  UNL1       -0.0090
     43 C          -1.7141    7.2790   -1.2865 C.3     1  UNL1       -0.0559
     44 H          -1.4886    7.7491   -2.2412 H       1  UNL1        0.0238
     45 H          -1.6885    8.0523   -0.5211 H       1  UNL1        0.0238
     46 H          -2.7229    6.8727   -1.3126 H       1  UNL1        0.0238
     47 C           0.6873    6.8818   -0.8439 C.3     1  UNL1       -0.0559
     48 H           1.4587    6.1615   -0.5902 H       1  UNL1        0.0238
     49 H           0.6695    7.6605   -0.0841 H       1  UNL1        0.0238
     50 H           0.9409    7.3394   -1.7979 H       1  UNL1        0.0238
     51 C          -1.0674    5.6148    0.4280 C.3     1  UNL1       -0.0559
     52 H          -2.0422    5.1344    0.3712 H       1  UNL1        0.0238
     53 H          -1.1151    6.3997    1.1797 H       1  UNL1        0.0238
     54 H          -0.3359    4.8778    0.7400 H       1  UNL1        0.0238
     55 C          -2.4283    4.1724   -5.1929 C.3     1  UNL1       -0.0127
     56 C          -2.2030    5.4895   -5.9484 C.3     1  UNL1       -0.0560
     57 H          -2.3673    6.3495   -5.3053 H       1  UNL1        0.0238
     58 H          -2.8872    5.5607   -6.7915 H       1  UNL1        0.0238
     59 H          -1.1835    5.5358   -6.3252 H       1  UNL1        0.0238
     60 C          -3.8548    4.1345   -4.6272 C.3     1  UNL1       -0.0560
     61 H          -4.0142    3.2106   -4.0751 H       1  UNL1        0.0238
     62 H          -4.5816    4.1848   -5.4355 H       1  UNL1        0.0238
     63 H          -4.0364    4.9679   -3.9545 H       1  UNL1        0.0238
     64 C          -2.2800    3.0202   -6.1903 C.3     1  UNL1       -0.0560
     65 H          -1.2901    3.0192   -6.6406 H       1  UNL1        0.0238
     66 H          -3.0120    3.1327   -6.9877 H       1  UNL1        0.0238
     67 H          -2.4534    2.0614   -5.7074 H       1  UNL1        0.0238
@<TRIPOS>BOND
     1    66    64    1
     2    58    56    1
     3    65    64    1
     4    59    56    1
     5    64    67    1
     6    64    55    1
     7    56    57    1
     8    56    55    1
     9    37    34    1
    10    62    60    1
    11    36    34    1
    12    55    60    1
    13    55     7    1
    14    34    35    1
    15    34    32    1
    16     9     8    1
    17    60    61    1
    18    60    63    1
    19    20    19    1
    20     7     8   ar
    21     7     5   ar
    22     8    10   ar
    23    18    17    1
    24    19    17   ar
    25    19    21   ar
    26    12    11    1
    27    33    32    1
    28    32    21    1
    29    32    38    1
    30    17    15   ar
    31    21    13   ar
    32     6     5    1
    33     5     4   ar
    34    11    10    1
    35    11     2    1
    36    10     3   ar
    37    40    38    1
    38    25    24    1
    39    15    16    1
    40    15    14   ar
    41    38    41    1
    42    38    39    1
    43    13    14   ar
    44    13     2    1
    45    27    24    1
    46    44    43    1
    47    14    22    1
    48     4     3   ar
    49     4    42    1
    50    24    26    1
    51    24    22    1
    52    50    47    1
    53     3     1    1
    54    46    43    1
    55    43    42    1
    56    43    45    1
    57    22    23    1
    58    22    28    1
    59    42    47    1
    60    42    51    1
    61    47    48    1
    62    47    49    1
    63    29    28    1
    64    28    31    1
    65    28    30    1
    66    52    51    1
    67    51    54    1
    68    51    53    1
