@<TRIPOS>MOLECULE
1,2
 67 68 0 0 0
SMALL
GASTEIGER

@<TRIPOS>ATOM
      1 O           3.9151    1.0915    0.7438 O.3     1  UNL1       -0.2872
      2 N           1.6484    2.2896    2.0718 N.pl3   1  UNL1       -0.2398
      3 C           4.0025    0.3353    1.7848 C.ar    1  UNL1        0.1877
      4 C           5.0729   -0.6114    1.9567 C.ar    1  UNL1        0.0053
      5 C           5.0661   -1.4433    3.0468 C.ar    1  UNL1       -0.0507
      6 H           5.8677   -2.1528    3.1569 H       1  UNL1        0.0625
      7 C           4.0753   -1.4369    4.0446 C.ar    1  UNL1       -0.0412
      8 C           3.0754   -0.5154    3.9139 C.ar    1  UNL1       -0.0493
      9 H           2.2936   -0.4384    4.6537 H       1  UNL1        0.0625
     10 C           3.0172    0.3826    2.8251 C.ar    1  UNL1        0.0240
     11 C           1.9309    1.2972    2.8596 C.3     1  UNL1        0.0954
     12 H           1.2513    1.1341    3.7071 H       1  UNL1        0.0591
     13 C           0.4547    2.9786    2.4567 C.ar    1  UNL1        0.0554
     14 C          -0.7935    2.4701    2.0792 C.ar    1  UNL1       -0.0220
     15 C          -1.9421    3.0928    2.5499 C.ar    1  UNL1       -0.0565
     16 H          -2.9094    2.7008    2.2756 H       1  UNL1        0.0621
     17 C          -1.8655    4.1977    3.3726 C.ar    1  UNL1       -0.0611
     18 H          -2.7672    4.6664    3.7374 H       1  UNL1        0.0618
     19 C          -0.6293    4.7054    3.7258 C.ar    1  UNL1       -0.0565
     20 H          -0.5801    5.5736    4.3629 H       1  UNL1        0.0621
     21 C           0.5418    4.1038    3.2904 C.ar    1  UNL1       -0.0220
     22 C          -0.9074    1.2681    1.1716 C.3     1  UNL1       -0.0197
     23 H           0.0983    1.0067    0.8244 H       1  UNL1        0.0344
     24 C          -1.4808    0.0699    1.9326 C.3     1  UNL1       -0.0586
     25 H          -0.8264   -0.2111    2.7553 H       1  UNL1        0.0235
     26 H          -1.5842   -0.7848    1.2672 H       1  UNL1        0.0235
     27 H          -2.4613    0.3058    2.3400 H       1  UNL1        0.0235
     28 C          -1.7593    1.5899   -0.0583 C.3     1  UNL1       -0.0586
     29 H          -2.7953    1.7723    0.2165 H       1  UNL1        0.0235
     30 H          -1.7351    0.7577   -0.7583 H       1  UNL1        0.0235
     31 H          -1.3745    2.4729   -0.5626 H       1  UNL1        0.0235
     32 C           1.8959    4.6681    3.6537 C.3     1  UNL1       -0.0197
     33 H           2.6137    3.8421    3.6964 H       1  UNL1        0.0344
     34 C           1.9242    5.3709    5.0113 C.3     1  UNL1       -0.0586
     35 H           1.3888    6.3166    4.9812 H       1  UNL1        0.0235
     36 H           2.9547    5.5823    5.2885 H       1  UNL1        0.0235
     37 H           1.4834    4.7429    5.7825 H       1  UNL1        0.0235
     38 C           2.3289    5.6360    2.5463 C.3     1  UNL1       -0.0586
     39 H           2.4126    5.1145    1.5825 H       1  UNL1        0.0235
     40 H           3.2976    6.0691    2.7813 H       1  UNL1        0.0235
     41 H           1.5978    6.4368    2.4468 H       1  UNL1        0.0235
     42 C           6.2006   -0.6826    0.9336 C.3     1  UNL1       -0.0090
     43 C           7.2790   -1.7141    1.2865 C.3     1  UNL1       -0.0559
     44 H           7.7491   -1.4886    2.2413 H       1  UNL1        0.0238
     45 H           8.0523   -1.6885    0.5211 H       1  UNL1        0.0238
     46 H           6.8727   -2.7229    1.3127 H       1  UNL1        0.0238
     47 C           6.8818    0.6872    0.8439 C.3     1  UNL1       -0.0559
     48 H           6.1614    1.4586    0.5902 H       1  UNL1        0.0238
     49 H           7.6604    0.6695    0.0841 H       1  UNL1        0.0238
     50 H           7.3394    0.9408    1.7979 H       1  UNL1        0.0238
     51 C           5.6148   -1.0675   -0.4280 C.3     1  UNL1       -0.0559
     52 H           5.1344   -2.0422   -0.3712 H       1  UNL1        0.0238
     53 H           6.3997   -1.1152   -1.1797 H       1  UNL1        0.0238
     54 H           4.8778   -0.3359   -0.7400 H       1  UNL1        0.0238
     55 C           4.1724   -2.4283    5.1930 C.3     1  UNL1       -0.0127
     56 C           5.4895   -2.2031    5.9484 C.3     1  UNL1       -0.0560
     57 H           6.3495   -2.3673    5.3053 H       1  UNL1        0.0238
     58 H           5.5607   -2.8872    6.7916 H       1  UNL1        0.0238
     59 H           5.5358   -1.1835    6.3253 H       1  UNL1        0.0238
     60 C           4.1345   -3.8549    4.6273 C.3     1  UNL1       -0.0560
     61 H           3.2106   -4.0142    4.0751 H       1  UNL1        0.0238
     62 H           4.1848   -4.5816    5.4355 H       1  UNL1        0.0238
     63 H           4.9679   -4.0365    3.9545 H       1  UNL1        0.0238
     64 C           3.0202   -2.2800    6.1904 C.3     1  UNL1       -0.0560
     65 H           3.0192   -1.2901    6.6406 H       1  UNL1        0.0238
     66 H           3.1327   -3.0120    6.9877 H       1  UNL1        0.0238
     67 H           2.0614   -2.4534    5.7074 H       1  UNL1        0.0238
@<TRIPOS>BOND
     1    53    51    1
     2    30    28    1
     3    54    51    1
     4    31    28    1
     5    51    52    1
     6    51    42    1
     7    28    29    1
     8    28    22    1
     9    49    47    1
    10    45    43    1
    11    48    47    1
    12     1     3    1
    13    23    22    1
    14    47    42    1
    15    47    50    1
    16    42    43    1
    17    42     4    1
    18    22    24    1
    19    22    14    1
    20    26    24    1
    21    43    46    1
    22    43    44    1
    23    39    38    1
    24     3     4   ar
    25     3    10   ar
    26    24    27    1
    27    24    25    1
    28     4     5   ar
    29     2    13    1
    30     2    11    1
    31    14    13   ar
    32    14    15   ar
    33    16    15    1
    34    41    38    1
    35    13    21   ar
    36    38    40    1
    37    38    32    1
    38    15    17   ar
    39    10    11    1
    40    10     8   ar
    41    11    12    1
    42     5     6    1
    43     5     7   ar
    44    21    32    1
    45    21    19   ar
    46    17    19   ar
    47    17    18    1
    48    32    33    1
    49    32    34    1
    50    19    20    1
    51     8     7   ar
    52     8     9    1
    53    63    60    1
    54     7    55    1
    55    61    60    1
    56    60    55    1
    57    60    62    1
    58    35    34    1
    59    34    36    1
    60    34    37    1
    61    55    56    1
    62    55    64    1
    63    57    56    1
    64    67    64    1
    65    56    59    1
    66    56    58    1
    67    64    65    1
    68    64    66    1
