@<TRIPOS>MOLECULE
1,2
 23 23 0 0 0
SMALL
GASTEIGER

@<TRIPOS>ATOM
      1 O           2.2785    8.3551   11.7894 O.3     1  UNL1       -0.2218
      2 N           4.4184    6.9715   12.0350 N.pl3   1  UNL1       -0.2424
      3 C           5.4023    6.0562   12.0737 C.3     1  UNL1        0.0847
      4 H           5.9119    5.8577   11.1389 H       1  UNL1        0.0584
      5 C           5.7892    5.4207   13.2383 C.2     1  UNL1       -0.0571
      6 H           6.5631    4.6705   13.2061 H       1  UNL1        0.0594
      7 C           5.1710    5.7484   14.4410 C.2     1  UNL1       -0.0509
      8 C           4.2166    6.7646   14.4087 C.2     1  UNL1       -0.0376
      9 H           3.7449    7.0886   15.3226 H       1  UNL1        0.0637
     10 C           3.8601    7.3419   13.2026 C.2     1  UNL1        0.0605
     11 C           2.8702    8.4959   13.0357 C.3     1  UNL1        0.1377
     12 C           5.5404    5.0576   15.7113 C.3     1  UNL1       -0.0399
     13 H           4.9244    5.3992   16.5383 H       1  UNL1        0.0277
     14 H           6.5857    5.2475   15.9507 H       1  UNL1        0.0277
     15 H           5.4191    3.9816   15.5995 H       1  UNL1        0.0277
     16 C           3.7080    9.8003   13.0695 C.3     1  UNL1       -0.0276
     17 H           4.3604    9.8154   12.1938 H       1  UNL1        0.0262
     18 H           4.3071    9.8600   13.9751 H       1  UNL1        0.0262
     19 H           3.0384   10.6558   13.0223 H       1  UNL1        0.0262
     20 C           1.8083    8.5404   14.1473 C.3     1  UNL1       -0.0276
     21 H           1.0587    9.2772   13.8694 H       1  UNL1        0.0262
     22 H           2.2477    8.8324   15.0975 H       1  UNL1        0.0262
     23 H           1.3246    7.5739   14.2442 H       1  UNL1        0.0262
@<TRIPOS>BOND
     1     4     3    1
     2     1    11    1
     3     2     3    1
     4     2    10    1
     5     3     5    1
     6    17    16    1
     7    19    16    1
     8    11    16    1
     9    11    10    1
    10    11    20    1
    11    16    18    1
    12    10     8    2
    13     6     5    1
    14     5     7    2
    15    21    20    1
    16    20    23    1
    17    20    22    1
    18     8     7    1
    19     8     9    1
    20     7    12    1
    21    15    12    1
    22    12    14    1
    23    12    13    1
