@<TRIPOS>MOLECULE
1,2
 10 9 0 0 0
SMALL
GASTEIGER

@<TRIPOS>ATOM
      1 O           1.4826    6.1996    0.2260 O.3     1  UNL1       -0.1199
      2 N           0.4254    5.3528    0.6103 N.3     1  UNL1       -0.1602
      3 C          -0.3616    5.0282   -0.5766 C.3     1  UNL1        0.0156
      4 C          -0.4022    6.0595    1.5876 C.3     1  UNL1        0.0156
      5 H           0.2874    4.5083   -1.2788 H       1  UNL1        0.0415
      6 H          -0.7528    5.9382   -1.0476 H       1  UNL1        0.0415
      7 H          -1.1912    4.3796   -0.2954 H       1  UNL1        0.0415
      8 H           0.2229    6.3219    2.4378 H       1  UNL1        0.0415
      9 H          -1.2102    5.4065    1.9187 H       1  UNL1        0.0415
     10 H          -0.8265    6.9742    1.1568 H       1  UNL1        0.0415
@<TRIPOS>BOND
     1     5     3    1
     2     6     3    1
     3     3     7    1
     4     3     2    1
     5     1     2    1
     6     2     4    1
     7    10     4    1
     8     4     9    1
     9     4     8    1
