@<TRIPOS>MOLECULE
1,2
 22 24 0 0 0
SMALL
GASTEIGER

@<TRIPOS>ATOM
      1 O           4.0110    0.3471    3.0867 O.3     1  UNL1       -0.1188
      2 N           4.4986    0.0524    4.3056 N.3     1  UNL1       -0.1480
      3 C           4.5226   -1.4019    4.5827 C.3     1  UNL1        0.0396
      4 C           5.7066   -2.0748    3.8904 C.3     1  UNL1       -0.0319
      5 C           6.8613   -1.3586    4.5956 C.3     1  UNL1       -0.0351
      6 C           6.9507    0.0116    3.9185 C.3     1  UNL1       -0.0319
      7 C           5.7851    0.7177    4.6101 C.3     1  UNL1        0.0396
      8 C           4.8989   -1.6304    6.0410 C.3     1  UNL1       -0.0319
      9 C           6.1468    0.4660    6.0688 C.3     1  UNL1       -0.0319
     10 C           6.3201   -1.0562    6.0346 C.3     1  UNL1       -0.0351
     11 H           3.5507   -1.8031    4.2873 H       1  UNL1        0.0487
     12 H           5.7109   -1.9225    2.8125 H       1  UNL1        0.0284
     13 H           5.6904   -3.1465    4.0904 H       1  UNL1        0.0284
     14 H           7.7970   -1.9161    4.5827 H       1  UNL1        0.0304
     15 H           7.8830    0.5323    4.1405 H       1  UNL1        0.0284
     16 H           6.8319   -0.0451    2.8377 H       1  UNL1        0.0284
     17 H           5.6813    1.7701    4.3379 H       1  UNL1        0.0487
     18 H           4.8805   -2.6962    6.2675 H       1  UNL1        0.0284
     19 H           4.2389   -1.1157    6.7377 H       1  UNL1        0.0284
     20 H           5.3707    0.7841    6.7638 H       1  UNL1        0.0284
     21 H           7.0717    0.9863    6.3183 H       1  UNL1        0.0284
     22 H           6.9507   -1.4424    6.8340 H       1  UNL1        0.0304
@<TRIPOS>BOND
     1    12     4    1
     2    16     6    1
     3     1     2    1
     4     4    13    1
     5     4     3    1
     6     4     5    1
     7     6    15    1
     8     6     5    1
     9     6     7    1
    10    11     3    1
    11     2     3    1
    12     2     7    1
    13    17     7    1
    14     3     8    1
    15    14     5    1
    16     5    10    1
    17     7     9    1
    18    10     8    1
    19    10     9    1
    20    10    22    1
    21     8    18    1
    22     8    19    1
    23     9    21    1
    24     9    20    1
