@<TRIPOS>MOLECULE
1,9
 15 15 0 0 0
SMALL
GASTEIGER

@<TRIPOS>ATOM
      1 N           1.7494   11.0338   12.2635 N.pl3   1  UNL1       -0.2658
      2 C           2.4680   10.0786   12.9102 C.ar    1  UNL1        0.0584
      3 C           2.3029    9.8866   14.2957 C.ar    1  UNL1       -0.0386
      4 C           3.0123    8.9229   14.9755 C.ar    1  UNL1       -0.0599
      5 C           3.9180    8.1117   14.3017 C.ar    1  UNL1       -0.0609
      6 C           4.0988    8.2828   12.9438 C.ar    1  UNL1       -0.0458
      7 C           3.3920    9.2489   12.2368 C.ar    1  UNL1        0.0854
      8 C           3.6475    9.3716   10.7647 C.2     1  UNL1        0.3884
      9 O           2.9432   10.2818   10.1739 O.co2   1  UNL1       -0.2405
     10 O           4.4594    8.6574   10.2047 O.co2   1  UNL1       -0.2405
     11 H           1.1460   11.5197   12.9279 H       1  UNL1        0.1699
     12 H           1.5968   10.5205   14.8162 H       1  UNL1        0.0637
     13 H           2.8628    8.7973   16.0393 H       1  UNL1        0.0618
     14 H           4.4741    7.3553   14.8362 H       1  UNL1        0.0618
     15 H           4.7948    7.6709   12.3885 H       1  UNL1        0.0626
@<TRIPOS>BOND
     1     9     8   ar
     2    10     8   ar
     3     8     7    1
     4     7     2   ar
     5     7     6   ar
     6     1     2    1
     7     1    11    1
     8    15     6    1
     9     2     3   ar
    10     6     5   ar
    11     3    12    1
    12     3     4   ar
    13     5    14    1
    14     5     4   ar
    15     4    13    1
