@<TRIPOS>MOLECULE
6,7
 36 37 0 0 0
SMALL
GASTEIGER

@<TRIPOS>ATOM
      1 C          16.6407   12.7861    6.4995 C.3     1  UNL1        0.0000
      2 H          16.9769   12.0741    5.7480 H       1  UNL1        0.0000
      3 H          15.6154   12.5503    6.7927 H       1  UNL1        0.0000
      4 H          17.2599   12.6389    7.3794 H       1  UNL1        0.0000
      5 SI         16.7832   14.6007    5.9044 Si      1  UNL1        0.0000
      6 O          13.8687   14.7592    2.4728 O.3     1  UNL1        0.0000
      7 N          15.6920   14.6989    4.5674 N.pl3   1  UNL1        0.0000
      8 C          15.5005   15.8642    3.8764 C.ar    1  UNL1        0.0000
      9 C          14.5792   15.9341    2.8016 C.ar    1  UNL1        0.0000
     10 C          14.3126   17.1167    2.1376 C.ar    1  UNL1        0.0000
     11 H          13.5673   17.1251    1.3547 H       1  UNL1        0.0000
     12 C          14.9883   18.2788    2.4660 C.ar    1  UNL1        0.0000
     13 H          14.7766   19.1961    1.9402 H       1  UNL1        0.0000
     14 C          15.9332   18.2347    3.4770 C.ar    1  UNL1        0.0000
     15 H          16.4831   19.1264    3.7406 H       1  UNL1        0.0000
     16 C          16.1760   17.0639    4.1613 C.ar    1  UNL1        0.0000
     17 H          16.9116   17.0534    4.9467 H       1  UNL1        0.0000
     18 C          16.3180   15.6813    7.4264 C.3     1  UNL1        0.0000
     19 H          15.5256   15.2244    8.0114 H       1  UNL1        0.0000
     20 H          15.9717   16.6659    7.1287 H       1  UNL1        0.0000
     21 H          17.1705   15.8187    8.0847 H       1  UNL1        0.0000
     22 C          18.6217   14.9763    5.4900 C.3     1  UNL1        0.0000
     23 H          18.8046   14.9268    4.4210 H       1  UNL1        0.0000
     24 H          19.2912   14.2725    5.9747 H       1  UNL1        0.0000
     25 H          18.9078   15.9700    5.8209 H       1  UNL1        0.0000
     26 C          13.4551   14.6308    1.1571 C.ar    1  UNL1        0.0000
     27 C          12.1501   14.2055    0.9311 C.ar    1  UNL1        0.0000
     28 H          11.4914   14.0673    1.7745 H       1  UNL1        0.0000
     29 C          11.7198   13.9590   -0.3603 C.ar    1  UNL1        0.0000
     30 H          10.7111   13.6128   -0.5260 H       1  UNL1        0.0000
     31 C          12.5755   14.1596   -1.4307 C.ar    1  UNL1        0.0000
     32 H          12.2397   13.9663   -2.4380 H       1  UNL1        0.0000
     33 C          13.8633   14.6205   -1.2061 C.ar    1  UNL1        0.0000
     34 H          14.5299   14.7906   -2.0384 H       1  UNL1        0.0000
     35 C          14.3093   14.8597    0.0815 C.ar    1  UNL1        0.0000
     36 H          15.3108   15.2231    0.2583 H       1  UNL1        0.0000
@<TRIPOS>BOND
     1    32    31    1
     2    34    33    1
     3    31    33   ar
     4    31    29   ar
     5    33    35   ar
     6    30    29    1
     7    29    27   ar
     8    35    36    1
     9    35    26   ar
    10    27    26   ar
    11    27    28    1
    12    26     6    1
    13    11    10    1
    14    13    12    1
    15    10    12   ar
    16    10     9   ar
    17    12    14   ar
    18     6     9    1
    19     9     8   ar
    20    14    15    1
    21    14    16   ar
    22     8    16   ar
    23     8     7    1
    24    16    17    1
    25    23    22    1
    26     7     5    1
    27    22    25    1
    28    22     5    1
    29    22    24    1
    30     2     1    1
    31     5     1    1
    32     5    18    1
    33     1     3    1
    34     1     4    1
    35    20    18    1
    36    18    19    1
    37    18    21    1
