@<TRIPOS>MOLECULE
2,3
 36 37 0 0 0
SMALL
GASTEIGER

@<TRIPOS>ATOM
      1 SI         11.4795   14.0332    5.3748 Si      1  UNL1        0.0000
      2 O          13.2056   11.5723    2.0720 O.3     1  UNL1        0.0000
      3 N          12.0494   12.8524    4.2520 N.pl3   1  UNL1        0.0000
      4 C          11.2589   12.1318    3.4036 C.ar    1  UNL1        0.0000
      5 C          11.8160   11.4236    2.3068 C.ar    1  UNL1        0.0000
      6 C          11.0327   10.6984    1.4297 C.ar    1  UNL1        0.0000
      7 H          11.4976   10.2010    0.5909 H       1  UNL1        0.0000
      8 C           9.6620   10.6120    1.6086 C.ar    1  UNL1        0.0000
      9 H           9.0624   10.0363    0.9217 H       1  UNL1        0.0000
     10 C           9.0853   11.2885    2.6692 C.ar    1  UNL1        0.0000
     11 H           8.0168   11.2436    2.8225 H       1  UNL1        0.0000
     12 C           9.8613   12.0315    3.5321 C.ar    1  UNL1        0.0000
     13 H           9.3949   12.5627    4.3418 H       1  UNL1        0.0000
     14 C          11.1656   15.7252    4.5226 C.3     1  UNL1        0.0000
     15 H          10.4115   15.6468    3.7446 H       1  UNL1        0.0000
     16 H          12.0722   16.1130    4.0680 H       1  UNL1        0.0000
     17 H          10.8196   16.4643    5.2380 H       1  UNL1        0.0000
     18 C           9.9329   13.7115    6.4707 C.3     1  UNL1        0.0000
     19 H           9.8220   12.6631    6.7234 H       1  UNL1        0.0000
     20 H           9.0171   14.0390    5.9882 H       1  UNL1        0.0000
     21 H          10.0161   14.2608    7.4036 H       1  UNL1        0.0000
     22 C          12.9182   14.2368    6.6194 C.3     1  UNL1        0.0000
     23 H          13.1821   13.2946    7.0993 H       1  UNL1        0.0000
     24 H          12.6302   14.9247    7.4078 H       1  UNL1        0.0000
     25 H          13.7978   14.6616    6.1386 H       1  UNL1        0.0000
     26 C          13.7780   10.5431    1.3318 C.ar    1  UNL1        0.0000
     27 C          14.3425   10.8428    0.0983 C.ar    1  UNL1        0.0000
     28 H          14.3132   11.8600   -0.2653 H       1  UNL1        0.0000
     29 C          14.9127    9.8315   -0.6547 C.ar    1  UNL1        0.0000
     30 H          15.3440   10.0608   -1.6173 H       1  UNL1        0.0000
     31 C          14.9266    8.5308   -0.1797 C.ar    1  UNL1        0.0000
     32 H          15.3742    7.7455   -0.7698 H       1  UNL1        0.0000
     33 C          14.3645    8.2370    1.0526 C.ar    1  UNL1        0.0000
     34 H          14.3790    7.2258    1.4295 H       1  UNL1        0.0000
     35 C          13.7792    9.2367    1.8063 C.ar    1  UNL1        0.0000
     36 H          13.3168    9.0128    2.7559 H       1  UNL1        0.0000
@<TRIPOS>BOND
     1    30    29    1
     2    32    31    1
     3    29    31   ar
     4    29    27   ar
     5    28    27    1
     6    31    33   ar
     7    27    26   ar
     8     7     6    1
     9     9     8    1
    10    33    34    1
    11    33    35   ar
    12    26    35   ar
    13    26     2    1
    14     6     8   ar
    15     6     5   ar
    16     8    10   ar
    17    35    36    1
    18     2     5    1
    19     5     4   ar
    20    10    11    1
    21    10    12   ar
    22     4    12   ar
    23     4     3    1
    24    12    13    1
    25    15    14    1
    26    16    14    1
    27     3     1    1
    28    14    17    1
    29    14     1    1
    30     1    18    1
    31     1    22    1
    32    20    18    1
    33    25    22    1
    34    18    19    1
    35    18    21    1
    36    22    23    1
    37    22    24    1
