@<TRIPOS>MOLECULE
2,3
 36 37 0 0 0
SMALL
GASTEIGER

@<TRIPOS>ATOM
      1 SI         17.4229   11.4675    2.5323 Si      1  UNL1        0.0000
      2 O          13.8933   10.4879    5.1690 O.3     1  UNL1        0.0000
      3 N          16.0853   11.0473    3.5414 N.pl3   1  UNL1        0.0000
      4 C          15.9741    9.8131    4.1131 C.ar    1  UNL1        0.0000
      5 C          14.8682    9.4875    4.9361 C.ar    1  UNL1        0.0000
      6 C          14.6816    8.2185    5.4526 C.ar    1  UNL1        0.0000
      7 H          13.7991    8.0152    6.0433 H       1  UNL1        0.0000
      8 C          15.6120    7.2203    5.2255 C.ar    1  UNL1        0.0000
      9 H          15.4604    6.2340    5.6341 H       1  UNL1        0.0000
     10 C          16.7365    7.5205    4.4746 C.ar    1  UNL1        0.0000
     11 H          17.4874    6.7629    4.3029 H       1  UNL1        0.0000
     12 C          16.9093    8.7765    3.9375 C.ar    1  UNL1        0.0000
     13 H          17.7914    8.9872    3.3589 H       1  UNL1        0.0000
     14 C          19.0745   11.7252    3.4762 C.3     1  UNL1        0.0000
     15 H          18.9730   12.4718    4.2558 H       1  UNL1        0.0000
     16 H          19.8602   12.0559    2.8039 H       1  UNL1        0.0000
     17 H          19.4115   10.8062    3.9460 H       1  UNL1        0.0000
     18 C          17.8097   10.2737    1.0754 C.3     1  UNL1        0.0000
     19 H          17.1198    9.4374    1.0583 H       1  UNL1        0.0000
     20 H          18.8143    9.8696    1.1534 H       1  UNL1        0.0000
     21 H          17.7354   10.7757    0.1163 H       1  UNL1        0.0000
     22 C          16.9148   13.1348    1.7474 C.3     1  UNL1        0.0000
     23 H          16.9291   13.9440    2.4745 H       1  UNL1        0.0000
     24 H          15.9254   13.0623    1.2936 H       1  UNL1        0.0000
     25 H          17.6100   13.4040    0.9581 H       1  UNL1        0.0000
     26 C          13.2895   10.4281    6.4174 C.ar    1  UNL1        0.0000
     27 C          14.0436   10.3295    7.5836 C.ar    1  UNL1        0.0000
     28 H          15.1197   10.2553    7.5196 H       1  UNL1        0.0000
     29 C          13.4071   10.3128    8.8107 C.ar    1  UNL1        0.0000
     30 H          13.9947   10.2452    9.7139 H       1  UNL1        0.0000
     31 C          12.0249   10.3769    8.8830 C.ar    1  UNL1        0.0000
     32 H          11.5330   10.3570    9.8433 H       1  UNL1        0.0000
     33 C          11.2779   10.4560    7.7203 C.ar    1  UNL1        0.0000
     34 H          10.2000   10.4828    7.7739 H       1  UNL1        0.0000
     35 C          11.9021   10.4832    6.4852 C.ar    1  UNL1        0.0000
     36 H          11.3301   10.5474    5.5720 H       1  UNL1        0.0000
@<TRIPOS>BOND
     1    21    18    1
     2    25    22    1
     3    19    18    1
     4    18    20    1
     5    18     1    1
     6    24    22    1
     7    22    23    1
     8    22     1    1
     9     1    14    1
    10     1     3    1
    11    16    14    1
    12    13    12    1
    13    14    17    1
    14    14    15    1
    15     3     4    1
    16    12     4   ar
    17    12    10   ar
    18     4     5   ar
    19    11    10    1
    20    10     8   ar
    21     5     2    1
    22     5     6   ar
    23     2    26    1
    24     8     6   ar
    25     8     9    1
    26     6     7    1
    27    36    35    1
    28    26    35   ar
    29    26    27   ar
    30    35    33   ar
    31    28    27    1
    32    27    29   ar
    33    33    34    1
    34    33    31   ar
    35    29    31   ar
    36    29    30    1
    37    31    32    1
