@<TRIPOS>MOLECULE
2,3
 36 37 0 0 0
SMALL
GASTEIGER

@<TRIPOS>ATOM
      1 SI          5.2413   10.5874    9.4827 Si      1  UNL1        0.0000
      2 O           5.4249    6.1913    8.7823 O.3     1  UNL1        0.0000
      3 N           5.6228    8.9221    9.1849 N.pl3   1  UNL1        0.0000
      4 C           5.6203    8.4280    7.9044 C.ar    1  UNL1        0.0000
      5 C           5.5215    7.0353    7.6546 C.ar    1  UNL1        0.0000
      6 C           5.4156    6.5295    6.3730 C.ar    1  UNL1        0.0000
      7 H           5.2786    5.4675    6.2293 H       1  UNL1        0.0000
      8 C           5.4728    7.3701    5.2743 C.ar    1  UNL1        0.0000
      9 H           5.3953    6.9634    4.2787 H       1  UNL1        0.0000
     10 C           5.6227    8.7299    5.4816 C.ar    1  UNL1        0.0000
     11 H           5.6809    9.4026    4.6385 H       1  UNL1        0.0000
     12 C           5.6835    9.2410    6.7603 C.ar    1  UNL1        0.0000
     13 H           5.7875   10.3026    6.9002 H       1  UNL1        0.0000
     14 C           5.1822   10.8011   11.3858 C.3     1  UNL1        0.0000
     15 H           6.1448   11.1003   11.7911 H       1  UNL1        0.0000
     16 H           4.8582    9.8898   11.8903 H       1  UNL1        0.0000
     17 H           4.4738   11.5811   11.6466 H       1  UNL1        0.0000
     18 C           6.4970   11.8862    8.8149 C.3     1  UNL1        0.0000
     19 H           7.3880   11.4160    8.4108 H       1  UNL1        0.0000
     20 H           6.8132   12.5689    9.5974 H       1  UNL1        0.0000
     21 H           6.0576   12.4863    8.0238 H       1  UNL1        0.0000
     22 C           3.5184   11.0708    8.7895 C.3     1  UNL1        0.0000
     23 H           3.4319   10.8102    7.7392 H       1  UNL1        0.0000
     24 H           3.3439   12.1387    8.8791 H       1  UNL1        0.0000
     25 H           2.7191   10.5601    9.3168 H       1  UNL1        0.0000
     26 C           5.7313    4.8501    8.6161 C.ar    1  UNL1        0.0000
     27 C           6.8618    4.4159    7.9324 C.ar    1  UNL1        0.0000
     28 H           7.5251    5.1401    7.4843 H       1  UNL1        0.0000
     29 C           7.1292    3.0626    7.8494 C.ar    1  UNL1        0.0000
     30 H           8.0088    2.7273    7.3221 H       1  UNL1        0.0000
     31 C           6.2846    2.1410    8.4462 C.ar    1  UNL1        0.0000
     32 H           6.5019    1.0864    8.3780 H       1  UNL1        0.0000
     33 C           5.1673    2.5761    9.1375 C.ar    1  UNL1        0.0000
     34 H           4.5098    1.8627    9.6112 H       1  UNL1        0.0000
     35 C           4.8842    3.9274    9.2208 C.ar    1  UNL1        0.0000
     36 H           4.0178    4.2843    9.7609 H       1  UNL1        0.0000
@<TRIPOS>BOND
     1     9     8    1
     2    11    10    1
     3     8    10   ar
     4     8     6   ar
     5    10    12   ar
     6     7     6    1
     7     6     5   ar
     8    12    13    1
     9    12     4   ar
    10    30    29    1
    11    28    27    1
    12     5     4   ar
    13     5     2    1
    14    23    22    1
    15    29    27   ar
    16    29    31   ar
    17     4     3    1
    18    27    26   ar
    19    21    18    1
    20    32    31    1
    21    19    18    1
    22    31    33   ar
    23    26     2    1
    24    26    35   ar
    25    22    24    1
    26    22    25    1
    27    22     1    1
    28    18     1    1
    29    18    20    1
    30    33    35   ar
    31    33    34    1
    32     3     1    1
    33    35    36    1
    34     1    14    1
    35    14    17    1
    36    14    15    1
    37    14    16    1
