@<TRIPOS>MOLECULE
2,3
 36 37 0 0 0
SMALL
GASTEIGER

@<TRIPOS>ATOM
      1 SI          9.2100    7.9186    9.8477 Si      1  UNL1        0.0000
      2 O           6.2059    5.1221   11.6735 O.3     1  UNL1        0.0000
      3 N           8.0353    6.7836   10.4225 N.pl3   1  UNL1        0.0000
      4 C           8.2964    5.4442   10.4964 C.ar    1  UNL1        0.0000
      5 C           7.4165    4.5790   11.1890 C.ar    1  UNL1        0.0000
      6 C           7.6592    3.2254   11.3231 C.ar    1  UNL1        0.0000
      7 H           6.9450    2.6164   11.8591 H       1  UNL1        0.0000
      8 C           8.8009    2.6619   10.7824 C.ar    1  UNL1        0.0000
      9 H           8.9937    1.6075   10.8990 H       1  UNL1        0.0000
     10 C           9.6715    3.4739   10.0738 C.ar    1  UNL1        0.0000
     11 H          10.5570    3.0486    9.6240 H       1  UNL1        0.0000
     12 C           9.4221    4.8205    9.9277 C.ar    1  UNL1        0.0000
     13 H          10.0993    5.4276    9.3523 H       1  UNL1        0.0000
     14 C           9.2138    8.0953    7.9360 C.3     1  UNL1        0.0000
     15 H           9.4865    7.1665    7.4427 H       1  UNL1        0.0000
     16 H           9.9240    8.8521    7.6177 H       1  UNL1        0.0000
     17 H           8.2343    8.3865    7.5670 H       1  UNL1        0.0000
     18 C          11.0221    7.5978   10.4034 C.3     1  UNL1        0.0000
     19 H          11.0752    6.8482   11.1855 H       1  UNL1        0.0000
     20 H          11.4746    8.5065   10.7869 H       1  UNL1        0.0000
     21 H          11.6390    7.2530    9.5799 H       1  UNL1        0.0000
     22 C           8.7295    9.5982   10.6263 C.3     1  UNL1        0.0000
     23 H           7.6801    9.6032   10.9251 H       1  UNL1        0.0000
     24 H           8.8724   10.4002    9.9124 H       1  UNL1        0.0000
     25 H           9.3300    9.8294   11.5003 H       1  UNL1        0.0000
     26 C           5.8344    4.7136   12.9445 C.ar    1  UNL1        0.0000
     27 C           4.4807    4.5151   13.1854 C.ar    1  UNL1        0.0000
     28 H           3.7807    4.6474   12.3754 H       1  UNL1        0.0000
     29 C           4.0506    4.1854   14.4570 C.ar    1  UNL1        0.0000
     30 H           2.9974    4.0408   14.6435 H       1  UNL1        0.0000
     31 C           4.9634    4.0376   15.4868 C.ar    1  UNL1        0.0000
     32 H           4.6246    3.7845   16.4794 H       1  UNL1        0.0000
     33 C           6.3137    4.2163   15.2390 C.ar    1  UNL1        0.0000
     34 H           7.0308    4.1018   16.0379 H       1  UNL1        0.0000
     35 C           6.7556    4.5503   13.9725 C.ar    1  UNL1        0.0000
     36 H           7.8082    4.6941   13.7780 H       1  UNL1        0.0000
@<TRIPOS>BOND
     1    15    14    1
     2    17    14    1
     3    16    14    1
     4    14     1    1
     5    13    12    1
     6    21    18    1
     7    11    10    1
     8     1    18    1
     9     1     3    1
    10     1    22    1
    11    24    22    1
    12    12    10   ar
    13    12     4   ar
    14    10     8   ar
    15    18    20    1
    16    18    19    1
    17     3     4    1
    18     4     5   ar
    19    22    23    1
    20    22    25    1
    21     8     9    1
    22     8     6   ar
    23     5     6   ar
    24     5     2    1
    25     6     7    1
    26     2    26    1
    27    28    27    1
    28    26    27   ar
    29    26    35   ar
    30    27    29   ar
    31    36    35    1
    32    35    33   ar
    33    29    30    1
    34    29    31   ar
    35    33    31   ar
    36    33    34    1
    37    31    32    1
