@<TRIPOS>MOLECULE
2,3
 36 37 0 0 0
SMALL
GASTEIGER

@<TRIPOS>ATOM
      1 SI          2.4943    7.4997   11.3965 Si      1  UNL1        0.0000
      2 O           6.6656    7.7113   13.1143 O.3     1  UNL1        0.0000
      3 N           4.0956    7.5023   12.0718 N.pl3   1  UNL1        0.0000
      4 C           4.2698    7.5751   13.4309 C.ar    1  UNL1        0.0000
      5 C           5.5634    7.6675   13.9998 C.ar    1  UNL1        0.0000
      6 C           5.7752    7.6359   15.3650 C.ar    1  UNL1        0.0000
      7 H           6.7875    7.6578   15.7422 H       1  UNL1        0.0000
      8 C           4.7088    7.5819   16.2436 C.ar    1  UNL1        0.0000
      9 H           4.8826    7.5610   17.3074 H       1  UNL1        0.0000
     10 C           3.4262    7.5599   15.7249 C.ar    1  UNL1        0.0000
     11 H           2.5751    7.5384   16.3899 H       1  UNL1        0.0000
     12 C           3.2179    7.5551   14.3634 C.ar    1  UNL1        0.0000
     13 H           2.2098    7.5299   13.9918 H       1  UNL1        0.0000
     14 C           1.5290    9.1183   11.7701 C.3     1  UNL1        0.0000
     15 H           1.1458    9.1484   12.7846 H       1  UNL1        0.0000
     16 H           0.6814    9.2250   11.1001 H       1  UNL1        0.0000
     17 H           2.1637    9.9893   11.6400 H       1  UNL1        0.0000
     18 C           1.3694    6.0178   11.9097 C.3     1  UNL1        0.0000
     19 H           1.5698    5.6633   12.9150 H       1  UNL1        0.0000
     20 H           1.4868    5.1741   11.2350 H       1  UNL1        0.0000
     21 H           0.3248    6.3111   11.8701 H       1  UNL1        0.0000
     22 C           2.5992    7.3658    9.4969 C.3     1  UNL1        0.0000
     23 H           3.2735    8.0990    9.0678 H       1  UNL1        0.0000
     24 H           1.6156    7.5476    9.0747 H       1  UNL1        0.0000
     25 H           2.9050    6.3786    9.1639 H       1  UNL1        0.0000
     26 C           7.7969    8.3567   13.5922 C.ar    1  UNL1        0.0000
     27 C           9.0220    7.7133   13.4693 C.ar    1  UNL1        0.0000
     28 H           9.0609    6.7321   13.0218 H       1  UNL1        0.0000
     29 C          10.1748    8.3475   13.8980 C.ar    1  UNL1        0.0000
     30 H          11.1262    7.8472   13.8016 H       1  UNL1        0.0000
     31 C          10.1101    9.6147   14.4515 C.ar    1  UNL1        0.0000
     32 H          11.0105   10.1060   14.7875 H       1  UNL1        0.0000
     33 C           8.8861   10.2538   14.5721 C.ar    1  UNL1        0.0000
     34 H           8.8324   11.2444   14.9980 H       1  UNL1        0.0000
     35 C           7.7277    9.6307   14.1469 C.ar    1  UNL1        0.0000
     36 H           6.7690   10.1198   14.2419 H       1  UNL1        0.0000
@<TRIPOS>BOND
     1    23    22    1
     2    24    22    1
     3    25    22    1
     4    22     1    1
     5    16    14    1
     6    20    18    1
     7     1    14    1
     8     1    18    1
     9     1     3    1
    10    17    14    1
    11    14    15    1
    12    21    18    1
    13    18    19    1
    14     3     4    1
    15    28    27    1
    16     2    26    1
    17     2     5    1
    18     4     5   ar
    19     4    12   ar
    20    27    26   ar
    21    27    29   ar
    22    26    35   ar
    23    30    29    1
    24    29    31   ar
    25    13    12    1
    26     5     6   ar
    27    35    36    1
    28    35    33   ar
    29    12    10   ar
    30    31    33   ar
    31    31    32    1
    32    33    34    1
    33     6     7    1
    34     6     8   ar
    35    10     8   ar
    36    10    11    1
    37     8     9    1
