@<TRIPOS>MOLECULE
2,3
 37 39 0 0 0
SMALL
GASTEIGER

@<TRIPOS>ATOM
      1 P           6.4157    5.8812    4.8654 P.3     1  UNL1        0.0199
      2 O           7.1320    8.5079    4.9781 O.3     1  UNL1       -0.1937
      3 N           4.9947    8.3052    4.4831 N.pl3   1  UNL1       -0.2054
      4 C           6.1420    7.7405    4.7187 C.3     1  UNL1        0.2661
      5 C           3.8198    7.6616    4.1357 C.ar    1  UNL1        0.0515
      6 C           3.7506    6.5355    3.3132 C.ar    1  UNL1       -0.0390
      7 H           4.6532    6.1116    2.8960 H       1  UNL1        0.0637
      8 C           2.5221    5.9851    2.9936 C.ar    1  UNL1       -0.0600
      9 H           2.4817    5.1127    2.3578 H       1  UNL1        0.0618
     10 C           1.3511    6.5440    3.4749 C.ar    1  UNL1       -0.0616
     11 H           0.3967    6.1072    3.2219 H       1  UNL1        0.0618
     12 C           1.4106    7.6769    4.2740 C.ar    1  UNL1       -0.0600
     13 H           0.4986    8.1228    4.6444 H       1  UNL1        0.0618
     14 C           2.6292    8.2368    4.5957 C.ar    1  UNL1       -0.0390
     15 H           2.7042    9.1162    5.2242 H       1  UNL1        0.0637
     16 C           7.3169    5.6473    3.2803 C.ar    1  UNL1       -0.0145
     17 C           7.2748    6.5610    2.2337 C.ar    1  UNL1       -0.0537
     18 H           6.7302    7.4903    2.3452 H       1  UNL1        0.0624
     19 C           7.9468    6.2918    1.0532 C.ar    1  UNL1       -0.0612
     20 H           7.9139    7.0100    0.2475 H       1  UNL1        0.0618
     21 C           8.6577    5.1134    0.9042 C.ar    1  UNL1       -0.0617
     22 H           9.1818    4.9096   -0.0180 H       1  UNL1        0.0618
     23 C           8.6951    4.1945    1.9415 C.ar    1  UNL1       -0.0612
     24 H           9.2469    3.2724    1.8291 H       1  UNL1        0.0618
     25 C           8.0236    4.4570    3.1196 C.ar    1  UNL1       -0.0537
     26 H           8.0483    3.7433    3.9324 H       1  UNL1        0.0624
     27 C           7.9025    5.9704    5.9500 C.ar    1  UNL1       -0.0145
     28 C           7.7967    5.4476    7.2347 C.ar    1  UNL1       -0.0537
     29 H           6.8638    4.9987    7.5474 H       1  UNL1        0.0624
     30 C           8.8696    5.5046    8.1061 C.ar    1  UNL1       -0.0612
     31 H           8.7769    5.0995    9.1035 H       1  UNL1        0.0618
     32 C          10.0597    6.0829    7.6985 C.ar    1  UNL1       -0.0617
     33 H          10.8978    6.1334    8.3782 H       1  UNL1        0.0618
     34 C          10.1753    6.5949    6.4159 C.ar    1  UNL1       -0.0612
     35 H          11.1042    7.0450    6.0970 H       1  UNL1        0.0618
     36 C           9.1063    6.5365    5.5408 C.ar    1  UNL1       -0.0537
     37 H           9.2030    6.9379    4.5421 H       1  UNL1        0.0624
@<TRIPOS>BOND
     1    22    21    1
     2    20    19    1
     3    21    19   ar
     4    21    23   ar
     5    19    17   ar
     6    24    23    1
     7    23    25   ar
     8    17    18    1
     9    17    16   ar
    10     9     8    1
    11     7     6    1
    12     8     6   ar
    13     8    10   ar
    14    25    16   ar
    15    25    26    1
    16    11    10    1
    17    16     1    1
    18     6     5   ar
    19    10    12   ar
    20     5     3    1
    21     5    14   ar
    22    12    14   ar
    23    12    13    1
    24     3     4    1
    25    37    36    1
    26    14    15    1
    27     4     1    1
    28     4     2    1
    29     1    27    1
    30    36    27   ar
    31    36    34   ar
    32    27    28   ar
    33    35    34    1
    34    34    32   ar
    35    28    29    1
    36    28    30   ar
    37    32    30   ar
    38    32    33    1
    39    30    31    1
