@<TRIPOS>MOLECULE
2,3
 37 36 0 0 0
SMALL
GASTEIGER

@<TRIPOS>ATOM
      1 SI         -2.1963    3.5586   -1.0342 Si      1  UNL1        0.0000
      2 O          -1.7103    3.3682    0.5761 O.3     1  UNL1        0.0000
      3 N          -1.0038    4.7022   -1.4083 N.3     1  UNL1        0.0000
      4 C          -1.9877    2.3341    1.4998 C.3     1  UNL1        0.0000
      5 C          -1.7711    2.9396    2.8933 C.3     1  UNL1        0.0000
      6 C          -0.9939    1.1884    1.2844 C.3     1  UNL1        0.0000
      7 C          -3.4267    1.8293    1.3904 C.3     1  UNL1        0.0000
      8 C          -2.1258    1.9124   -2.0281 C.3     1  UNL1        0.0000
      9 C          -4.0469    4.0930   -1.0369 C.3     1  UNL1        0.0000
     10 C          -1.0359    5.5497   -2.5840 C.3     1  UNL1        0.0000
     11 C          -1.6337    4.8378   -3.8056 C.3     1  UNL1        0.0000
     12 C          -1.8597    6.8214   -2.3032 C.3     1  UNL1        0.0000
     13 C           0.4034    5.9613   -2.9470 C.3     1  UNL1        0.0000
     14 H          -1.9263    2.1921    3.6686 H       1  UNL1        0.0000
     15 H          -2.4702    3.7609    3.0479 H       1  UNL1        0.0000
     16 H          -0.7522    3.3238    2.9591 H       1  UNL1        0.0000
     17 H           0.0192    1.5821    1.3564 H       1  UNL1        0.0000
     18 H          -1.1342    0.7536    0.2992 H       1  UNL1        0.0000
     19 H          -1.1317    0.4142    2.0357 H       1  UNL1        0.0000
     20 H          -3.5949    1.3556    0.4293 H       1  UNL1        0.0000
     21 H          -4.1169    2.6613    1.4959 H       1  UNL1        0.0000
     22 H          -3.6260    1.1046    2.1765 H       1  UNL1        0.0000
     23 H          -2.6986    1.1123   -1.5689 H       1  UNL1        0.0000
     24 H          -2.5334    2.0610   -3.0224 H       1  UNL1        0.0000
     25 H          -1.1048    1.5627   -2.1465 H       1  UNL1        0.0000
     26 H          -4.3141    4.5277   -1.9948 H       1  UNL1        0.0000
     27 H          -4.2373    4.8457   -0.2761 H       1  UNL1        0.0000
     28 H          -4.7279    3.2650   -0.8659 H       1  UNL1        0.0000
     29 H          -1.0985    3.9111   -3.9875 H       1  UNL1        0.0000
     30 H          -1.5586    5.4703   -4.6876 H       1  UNL1        0.0000
     31 H          -2.6777    4.6021   -3.6313 H       1  UNL1        0.0000
     32 H          -1.4660    7.3309   -1.4225 H       1  UNL1        0.0000
     33 H          -2.8909    6.5470   -2.1016 H       1  UNL1        0.0000
     34 H          -1.8328    7.5005   -3.1535 H       1  UNL1        0.0000
     35 H           0.9741    5.0837   -3.2435 H       1  UNL1        0.0000
     36 H           0.8867    6.4266   -2.0852 H       1  UNL1        0.0000
     37 H           0.4014    6.6690   -3.7743 H       1  UNL1        0.0000
@<TRIPOS>BOND
     1    30    11    1
     2    29    11    1
     3    11    31    1
     4    11    10    1
     5    37    13    1
     6    35    13    1
     7    34    12    1
     8    24     8    1
     9    13    10    1
    10    13    36    1
    11    10    12    1
    12    10     3    1
    13    12    33    1
    14    12    32    1
    15    25     8    1
    16     8    23    1
    17     8     1    1
    18    26     9    1
    19     3     1    1
    20     9     1    1
    21     9    28    1
    22     9    27    1
    23     1     2    1
    24    18     6    1
    25    20     7    1
    26     2     4    1
    27     6    17    1
    28     6     4    1
    29     6    19    1
    30     7    21    1
    31     7     4    1
    32     7    22    1
    33     4     5    1
    34     5    16    1
    35     5    15    1
    36     5    14    1
