@<TRIPOS>MOLECULE
2,3
 37 36 0 0 0
SMALL
GASTEIGER

@<TRIPOS>ATOM
      1 SI          2.4442    3.8477    2.5734 Si      1  UNL1        0.0000
      2 O           1.2202    4.8785    3.1221 O.3     1  UNL1        0.0000
      3 N           1.9608    3.8500    0.9534 N.3     1  UNL1        0.0000
      4 C           1.1083    5.6026    4.3339 C.3     1  UNL1        0.0000
      5 C          -0.3815    5.6861    4.7000 C.3     1  UNL1        0.0000
      6 C           1.6428    7.0228    4.1038 C.3     1  UNL1        0.0000
      7 C           1.8586    4.9432    5.4911 C.3     1  UNL1        0.0000
      8 C           4.2106    4.5234    2.9792 C.3     1  UNL1        0.0000
      9 C           2.3105    2.2001    3.5657 C.3     1  UNL1        0.0000
     10 C           2.7001    3.2097   -0.1246 C.3     1  UNL1        0.0000
     11 C           3.5404    4.2692   -0.8653 C.3     1  UNL1        0.0000
     12 C           3.6382    2.0939    0.3531 C.3     1  UNL1        0.0000
     13 C           1.7142    2.5842   -1.1278 C.3     1  UNL1        0.0000
     14 H          -0.7615    4.6999    4.9525 H       1  UNL1        0.0000
     15 H          -0.9483    6.0788    3.8564 H       1  UNL1        0.0000
     16 H          -0.5200    6.3408    5.5570 H       1  UNL1        0.0000
     17 H           2.7097    6.9914    3.9012 H       1  UNL1        0.0000
     18 H           1.1305    7.4589    3.2475 H       1  UNL1        0.0000
     19 H           1.4727    7.6423    4.9811 H       1  UNL1        0.0000
     20 H           1.7118    5.5233    6.3994 H       1  UNL1        0.0000
     21 H           1.4778    3.9397    5.6535 H       1  UNL1        0.0000
     22 H           2.9205    4.8867    5.2794 H       1  UNL1        0.0000
     23 H           4.8532    4.4603    2.1066 H       1  UNL1        0.0000
     24 H           4.2160    5.5622    3.2964 H       1  UNL1        0.0000
     25 H           4.6871    3.9410    3.7628 H       1  UNL1        0.0000
     26 H           1.2791    1.8715    3.6594 H       1  UNL1        0.0000
     27 H           2.7195    2.2844    4.5682 H       1  UNL1        0.0000
     28 H           2.8577    1.4059    3.0701 H       1  UNL1        0.0000
     29 H           4.2960    4.6733   -0.1959 H       1  UNL1        0.0000
     30 H           2.8934    5.0833   -1.1957 H       1  UNL1        0.0000
     31 H           4.0370    3.8361   -1.7314 H       1  UNL1        0.0000
     32 H           3.0657    1.3202    0.8550 H       1  UNL1        0.0000
     33 H           4.1533    1.6495   -0.4962 H       1  UNL1        0.0000
     34 H           4.3764    2.4789    1.0479 H       1  UNL1        0.0000
     35 H           0.9624    3.3165   -1.4322 H       1  UNL1        0.0000
     36 H           1.2072    1.7398   -0.6675 H       1  UNL1        0.0000
     37 H           2.2442    2.2280   -2.0102 H       1  UNL1        0.0000
@<TRIPOS>BOND
     1    37    13    1
     2    31    11    1
     3    35    13    1
     4    30    11    1
     5    13    36    1
     6    13    10    1
     7    11    29    1
     8    11    10    1
     9    33    12    1
    10    10    12    1
    11    10     3    1
    12    12    32    1
    13    12    34    1
    14     3     1    1
    15    23     8    1
    16     1     8    1
    17     1     2    1
    18     1     9    1
    19     8    24    1
    20     8    25    1
    21    28     9    1
    22     2     4    1
    23    18     6    1
    24     9    26    1
    25     9    27    1
    26    15     5    1
    27    17     6    1
    28     6     4    1
    29     6    19    1
    30     4     5    1
    31     4     7    1
    32     5    14    1
    33     5    16    1
    34    22     7    1
    35     7    21    1
    36     7    20    1
