@<TRIPOS>MOLECULE
2,3
 40 41 0 0 0
SMALL
GASTEIGER

@<TRIPOS>ATOM
      1 SI          2.0893    1.7456    8.2510 Si      1  UNL1        0.0000
      2 O          -0.1747    0.8909    6.3425 O.3     1  UNL1        0.0000
      3 N           0.7009   -1.1124    6.1526 N.pl3   1  UNL1        0.0000
      4 C           0.5032   -0.0442    6.8851 C.3     1  UNL1        0.0000
      5 C           1.0177    0.1270    8.2771 C.3     1  UNL1        0.0000
      6 H           1.6486   -0.7285    8.5271 H       1  UNL1        0.0000
      7 C          -0.0709    0.2186    9.2973 C.ar    1  UNL1        0.0000
      8 C          -1.1749    1.0468    9.1247 C.ar    1  UNL1        0.0000
      9 H          -1.2549    1.6218    8.2164 H       1  UNL1        0.0000
     10 C          -2.1629    1.1191   10.0888 C.ar    1  UNL1        0.0000
     11 H          -3.0168    1.7640    9.9348 H       1  UNL1        0.0000
     12 C          -2.0607    0.3756   11.2528 C.ar    1  UNL1        0.0000
     13 H          -2.8297    0.4370   12.0091 H       1  UNL1        0.0000
     14 C          -0.9639   -0.4483   11.4381 C.ar    1  UNL1        0.0000
     15 H          -0.8744   -1.0344   12.3417 H       1  UNL1        0.0000
     16 C           0.0188   -0.5281   10.4680 C.ar    1  UNL1        0.0000
     17 H           0.8685   -1.1795   10.6201 H       1  UNL1        0.0000
     18 C           3.0332    1.7116    9.9116 C.3     1  UNL1        0.0000
     19 H           3.6392    2.6041   10.0189 H       1  UNL1        0.0000
     20 H           3.6964    0.8557    9.9866 H       1  UNL1        0.0000
     21 H           2.3507    1.6734   10.7549 H       1  UNL1        0.0000
     22 C           3.2999    1.7098    6.7831 C.3     1  UNL1        0.0000
     23 H           3.9224    2.5997    6.7799 H       1  UNL1        0.0000
     24 H           2.7582    1.6944    5.8400 H       1  UNL1        0.0000
     25 H           3.9664    0.8519    6.8043 H       1  UNL1        0.0000
     26 C           1.0272    3.3224    8.1491 C.3     1  UNL1        0.0000
     27 H           0.3653    3.4269    9.0038 H       1  UNL1        0.0000
     28 H           0.4235    3.3085    7.2472 H       1  UNL1        0.0000
     29 H           1.6615    4.2030    8.1105 H       1  UNL1        0.0000
     30 C           1.4053   -2.2570    6.5173 C.ar    1  UNL1        0.0000
     31 C           2.7611   -2.2401    6.8513 C.ar    1  UNL1        0.0000
     32 H           3.2820   -1.2949    6.8911 H       1  UNL1        0.0000
     33 C           3.4354   -3.4209    7.0967 C.ar    1  UNL1        0.0000
     34 H           4.4865   -3.3920    7.3482 H       1  UNL1        0.0000
     35 C           2.7777   -4.6367    7.0168 C.ar    1  UNL1        0.0000
     36 H           3.3106   -5.5570    7.2043 H       1  UNL1        0.0000
     37 C           1.4316   -4.6634    6.6898 C.ar    1  UNL1        0.0000
     38 H           0.9109   -5.6086    6.6266 H       1  UNL1        0.0000
     39 C           0.7503   -3.4892    6.4420 C.ar    1  UNL1        0.0000
     40 H          -0.2994   -3.5057    6.1822 H       1  UNL1        0.0000
@<TRIPOS>BOND
     1    24    22    1
     2     3    30    1
     3     3     4    1
     4    40    39    1
     5     2     4    1
     6    39    30   ar
     7    39    37   ar
     8    30    31   ar
     9    38    37    1
    10    37    35   ar
    11    23    22    1
    12    22    25    1
    13    22     1    1
    14    31    32    1
    15    31    33   ar
    16     4     5    1
    17    35    33   ar
    18    35    36    1
    19    33    34    1
    20    28    26    1
    21    29    26    1
    22    26     1    1
    23    26    27    1
    24     9     8    1
    25     1     5    1
    26     1    18    1
    27     5     6    1
    28     5     7    1
    29     8     7   ar
    30     8    10   ar
    31     7    16   ar
    32    18    20    1
    33    18    19    1
    34    18    21    1
    35    11    10    1
    36    10    12   ar
    37    16    17    1
    38    16    14   ar
    39    12    14   ar
    40    12    13    1
    41    14    15    1
