@<TRIPOS>MOLECULE
2,3
 47 48 0 0 0
SMALL
GASTEIGER

@<TRIPOS>ATOM
      1 SI        -21.1800  -20.5511   -2.1323 Si      1  UNL1        0.0000
      2 O         -24.7904  -16.4657    0.6111 O.3     1  UNL1        0.0000
      3 N         -23.7482  -17.7386   -0.8582 N.pl3   1  UNL1        0.0000
      4 N         -22.9723  -18.6052   -1.4688 N.2     1  UNL1        0.0000
      5 C         -23.9102  -17.5365    0.5785 C.3     1  UNL1        0.0000
      6 C         -24.5687  -18.7587    1.2824 C.3     1  UNL1        0.0000
      7 C         -25.8590  -19.0722    0.5903 C.ar    1  UNL1        0.0000
      8 C         -25.8972  -19.9650   -0.4762 C.ar    1  UNL1        0.0000
      9 C         -27.0984  -20.2733   -1.0905 C.ar    1  UNL1        0.0000
     10 C         -28.2756  -19.6895   -0.6563 C.ar    1  UNL1        0.0000
     11 C         -28.2427  -18.7790    0.3855 C.ar    1  UNL1        0.0000
     12 C         -27.0425  -18.4661    0.9994 C.ar    1  UNL1        0.0000
     13 C         -22.5890  -17.1209    1.2894 C.3     1  UNL1        0.0000
     14 C         -21.9147  -16.0520    0.4848 C.ar    1  UNL1        0.0000
     15 C         -22.3970  -14.7445    0.5126 C.ar    1  UNL1        0.0000
     16 C         -21.7477  -13.7427   -0.1894 C.ar    1  UNL1        0.0000
     17 C         -20.6230  -14.0347   -0.9422 C.ar    1  UNL1        0.0000
     18 C         -20.1618  -15.3382   -1.0057 C.ar    1  UNL1        0.0000
     19 C         -20.8038  -16.3404   -0.2999 C.ar    1  UNL1        0.0000
     20 C         -22.1952  -19.4986   -0.9626 C.2     1  UNL1        0.0000
     21 C         -21.3419  -22.3990   -1.6598 C.3     1  UNL1        0.0000
     22 C         -19.3252  -20.0834   -2.0138 C.3     1  UNL1        0.0000
     23 C         -21.7589  -20.3011   -3.9320 C.3     1  UNL1        0.0000
     24 H         -23.8985  -19.6171    1.2497 H       1  UNL1        0.0000
     25 H         -24.7501  -18.4802    2.3222 H       1  UNL1        0.0000
     26 H         -24.9843  -20.4405   -0.8067 H       1  UNL1        0.0000
     27 H         -27.1200  -20.9851   -1.9036 H       1  UNL1        0.0000
     28 H         -29.2140  -19.9377   -1.1300 H       1  UNL1        0.0000
     29 H         -29.1611  -18.3226    0.7269 H       1  UNL1        0.0000
     30 H         -27.0201  -17.7736    1.8286 H       1  UNL1        0.0000
     31 H         -22.8685  -16.7367    2.2731 H       1  UNL1        0.0000
     32 H         -21.9308  -17.9796    1.4167 H       1  UNL1        0.0000
     33 H         -23.2448  -14.5061    1.1398 H       1  UNL1        0.0000
     34 H         -22.1095  -12.7253   -0.1400 H       1  UNL1        0.0000
     35 H         -20.1096  -13.2476   -1.4750 H       1  UNL1        0.0000
     36 H         -19.2868  -15.5740   -1.5952 H       1  UNL1        0.0000
     37 H         -20.4315  -17.3537   -0.3477 H       1  UNL1        0.0000
     38 H         -22.0868  -19.6460    0.1165 H       1  UNL1        0.0000
     39 H         -20.7199  -23.0270   -2.2905 H       1  UNL1        0.0000
     40 H         -22.3660  -22.7467   -1.7588 H       1  UNL1        0.0000
     41 H         -21.0380  -22.5696   -0.6311 H       1  UNL1        0.0000
     42 H         -18.7123  -20.7111   -2.6540 H       1  UNL1        0.0000
     43 H         -18.9541  -20.1945   -0.9988 H       1  UNL1        0.0000
     44 H         -19.1612  -19.0516   -2.3110 H       1  UNL1        0.0000
     45 H         -21.2088  -20.9378   -4.6186 H       1  UNL1        0.0000
     46 H         -21.6138  -19.2724   -4.2438 H       1  UNL1        0.0000
     47 H         -22.8138  -20.5309   -4.0383 H       1  UNL1        0.0000
@<TRIPOS>BOND
     1    45    23    1
     2    46    23    1
     3    47    23    1
     4    23     1    1
     5    42    22    1
     6    44    22    1
     7    39    21    1
     8     1    22    1
     9     1    21    1
    10     1    20    1
    11    22    43    1
    12    27     9    1
    13    40    21    1
    14    21    41    1
    15    36    18    1
    16    35    17    1
    17     4    20    2
    18     4     3    1
    19    28    10    1
    20     9    10   ar
    21     9     8   ar
    22    18    17   ar
    23    18    19   ar
    24    20    38    1
    25    17    16   ar
    26     3     5    1
    27    26     8    1
    28    10    11   ar
    29     8     7   ar
    30    37    19    1
    31    19    14   ar
    32    16    34    1
    33    16    15   ar
    34    11    29    1
    35    11    12   ar
    36    14    15   ar
    37    14    13    1
    38    15    33    1
    39     5     2    1
    40     5     6    1
    41     5    13    1
    42     7    12   ar
    43     7     6    1
    44    12    30    1
    45    24     6    1
    46     6    25    1
    47    13    32    1
    48    13    31    1
