@<TRIPOS>MOLECULE
1,2
 19 20 0 0 0
SMALL
GASTEIGER

@<TRIPOS>ATOM
      1 N          15.5538    5.8131   14.2772 N.pl3   1  UNL1       -0.2074
      2 O          14.1347    4.9009   16.2969 O.co2   1  UNL1       -0.2391
      3 OXT        15.6397    3.3566   16.8003 O.co2   1  UNL1       -0.2391
      4 C          15.2509    4.2990   16.1468 C.2     1  UNL1        0.4021
      5 CA         16.1069    4.8761   15.0281 C.2     1  UNL1        0.1416
      6 C          17.4083    4.3891   14.8426 C.2     1  UNL1       -0.0312
      7 H          17.7521    3.6183   15.5147 H       1  UNL1        0.0639
      8 C          18.1732    4.9135   13.8400 C.2     1  UNL1       -0.0541
      9 H          19.1895    4.5897   13.6763 H       1  UNL1        0.0622
     10 C          17.6100    5.8904   12.9935 C.2     1  UNL1       -0.0166
     11 C          18.3322    6.4492   11.9190 C.3     1  UNL1        0.0146
     12 H          19.3487    6.1225   11.7624 H       1  UNL1        0.0401
     13 C          17.7582    7.3752   11.0937 C.2     1  UNL1       -0.0756
     14 H          18.3165    7.7993   10.2744 H       1  UNL1        0.0578
     15 C          16.4297    7.7699   11.3069 C.2     1  UNL1       -0.0633
     16 H          15.9784    8.4901   10.6417 H       1  UNL1        0.0615
     17 C          15.7021    7.2526   12.3449 C.2     1  UNL1       -0.0387
     18 H          14.6790    7.5567   12.4979 H       1  UNL1        0.0637
     19 C          16.2678    6.3143   13.2303 C.2     1  UNL1        0.0577
@<TRIPOS>BOND
     1    14    13    1
     2    16    15    1
     3    13    15    2
     4    13    11    1
     5    15    17    1
     6    12    11    1
     7    11    10    1
     8    17    18    1
     9    17    19    2
    10    10    19    1
    11    10     8    2
    12    19     1    1
    13     9     8    1
    14     8     6    1
    15     1     5    1
    16     6     5    2
    17     6     7    1
    18     5     4    1
    19     4     2   ar
    20     4     3   ar
