@<TRIPOS>MOLECULE
1,2
 19 20 0 0 0
SMALL
GASTEIGER

@<TRIPOS>ATOM
      1 N           5.9899    0.0755   10.8591 N.pl3   1  UNL1       -0.2253
      2 OXT         7.5611    0.3934    8.7650 O.co2   1  UNL1       -0.2391
      3 O           5.8860    1.0393    7.4702 O.co2   1  UNL1       -0.2391
      4 C           6.3368    0.6673    8.5308 C.2     1  UNL1        0.4017
      5 CA          5.4279    0.5038    9.7427 C.2     1  UNL1        0.1373
      6 C           4.0688    0.8292    9.6245 C.2     1  UNL1       -0.0316
      7 H           3.7199    1.1599    8.6585 H       1  UNL1        0.0639
      8 C           3.2681    0.7285   10.7263 C.2     1  UNL1       -0.0541
      9 H           2.2202    0.9839   10.6879 H       1  UNL1        0.0622
     10 C           3.8293    0.2767   11.9385 C.2     1  UNL1       -0.0158
     11 C           3.0579    0.1439   13.1116 C.2     1  UNL1       -0.0561
     12 H           2.0137    0.4129   13.0693 H       1  UNL1        0.0621
     13 C           3.6170   -0.3158   14.2709 C.2     1  UNL1       -0.0616
     14 H           3.0225   -0.4125   15.1653 H       1  UNL1        0.0618
     15 C           4.9729   -0.6731   14.2972 C.2     1  UNL1       -0.0632
     16 H           5.4043   -1.0460   15.2136 H       1  UNL1        0.0615
     17 C           5.7509   -0.5553   13.1767 C.2     1  UNL1       -0.0520
     18 H           6.7915   -0.8386   13.2036 H       1  UNL1        0.0598
     19 C           5.2143   -0.0639   11.9703 C.3     1  UNL1        0.1276
@<TRIPOS>BOND
     1     3     4   ar
     2     4     2   ar
     3     4     5    1
     4     7     6    1
     5     6     5    2
     6     6     8    1
     7     5     1    1
     8     9     8    1
     9     8    10    2
    10     1    19    1
    11    10    19    1
    12    10    11    1
    13    19    17    1
    14    12    11    1
    15    11    13    2
    16    17    18    1
    17    17    15    2
    18    13    15    1
    19    13    14    1
    20    15    16    1
