@<TRIPOS>MOLECULE
2,3
 68 69 0 0 0
SMALL
GASTEIGER

@<TRIPOS>ATOM
      1 SI          0.8420    8.3977    9.7582 Si      1  UNL1        0.0000
      2 N           0.4357    6.7943   12.9384 N.pl3   1  UNL1        0.0000
      3 O           2.1532    4.2195   12.3132 O.3     1  UNL1        0.0000
      4 O          -1.1471    5.8785   14.8391 O.3     1  UNL1        0.0000
      5 C           6.0726    8.3382   12.0227 C.3     1  UNL1        0.0000
      6 C           5.4727    9.7469   11.9720 C.3     1  UNL1        0.0000
      7 H           6.2738   10.4841   11.9721 H       1  UNL1        0.0000
      8 H           4.8442    9.9328   12.8401 H       1  UNL1        0.0000
      9 H           4.8844    9.8919   11.0685 H       1  UNL1        0.0000
     10 C           6.9481    8.1475   10.7760 C.3     1  UNL1        0.0000
     11 H           7.7143    8.9193   10.7290 H       1  UNL1        0.0000
     12 H           6.3395    8.2094    9.8759 H       1  UNL1        0.0000
     13 H           7.4396    7.1787   10.7868 H       1  UNL1        0.0000
     14 C           6.9407    8.2381   13.2849 C.3     1  UNL1        0.0000
     15 H           7.4433    7.2768   13.3410 H       1  UNL1        0.0000
     16 H           6.3219    8.3496   14.1729 H       1  UNL1        0.0000
     17 H           7.6982    9.0201   13.2880 H       1  UNL1        0.0000
     18 C           5.0070    7.2539   12.0657 C.ar    1  UNL1        0.0000
     19 C           5.3798    5.9139   12.1421 C.ar    1  UNL1        0.0000
     20 H           6.4336    5.6923   12.1442 H       1  UNL1        0.0000
     21 C           4.4918    4.8558   12.1903 C.ar    1  UNL1        0.0000
     22 C           4.9930    3.4218   12.0754 C.3     1  UNL1        0.0000
     23 C           4.5245    2.9101   10.7081 C.3     1  UNL1        0.0000
     24 H           3.4450    2.9915   10.6426 H       1  UNL1        0.0000
     25 H           4.8058    1.8684   10.5647 H       1  UNL1        0.0000
     26 H           4.9689    3.5051    9.9115 H       1  UNL1        0.0000
     27 C           4.4080    2.5543   13.1913 C.3     1  UNL1        0.0000
     28 H           4.8408    2.8452   14.1445 H       1  UNL1        0.0000
     29 H           4.6296    1.5030   13.0096 H       1  UNL1        0.0000
     30 H           3.3325    2.6923   13.2353 H       1  UNL1        0.0000
     31 C           6.5190    3.2879   12.1373 C.3     1  UNL1        0.0000
     32 H           6.9992    3.7845   11.2971 H       1  UNL1        0.0000
     33 H           6.7815    2.2320   12.0922 H       1  UNL1        0.0000
     34 H           6.9138    3.6935   13.0665 H       1  UNL1        0.0000
     35 C           3.0941    5.1294   12.2261 C.ar    1  UNL1        0.0000
     36 C           2.7309    6.4932   12.1013 C.ar    1  UNL1        0.0000
     37 C           3.6513    7.5191   12.0010 C.ar    1  UNL1        0.0000
     38 H           3.2819    8.5237   11.8656 H       1  UNL1        0.0000
     39 C           1.2747    6.6952   11.9651 C.3     1  UNL1        0.0000
     40 C           0.7607    6.6559   10.5805 C.3     1  UNL1        0.0000
     41 H          -0.2836    6.3561   10.5706 H       1  UNL1        0.0000
     42 H           1.3470    5.9584    9.9833 H       1  UNL1        0.0000
     43 C           2.5011    8.5854    8.8286 C.3     1  UNL1        0.0000
     44 H           2.6888    9.6205    8.5584 H       1  UNL1        0.0000
     45 H           2.4998    8.0063    7.9094 H       1  UNL1        0.0000
     46 H           3.3373    8.2392    9.4288 H       1  UNL1        0.0000
     47 C           0.6140    9.7734   11.0635 C.3     1  UNL1        0.0000
     48 H           1.5645   10.2043   11.3648 H       1  UNL1        0.0000
     49 H           0.1355    9.3829   11.9572 H       1  UNL1        0.0000
     50 H           0.0000   10.5856   10.6851 H       1  UNL1        0.0000
     51 C          -0.5938    8.4212    8.4992 C.3     1  UNL1        0.0000
     52 H          -0.6409    9.3645    7.9643 H       1  UNL1        0.0000
     53 H          -1.5532    8.2626    8.9822 H       1  UNL1        0.0000
     54 H          -0.4755    7.6314    7.7632 H       1  UNL1        0.0000
     55 C           0.7512    7.1555   14.2402 C.ar    1  UNL1        0.0000
     56 C           1.7284    8.0893   14.5848 C.ar    1  UNL1        0.0000
     57 H           2.3690    8.4893   13.8188 H       1  UNL1        0.0000
     58 C           1.8653    8.5256   15.8906 C.ar    1  UNL1        0.0000
     59 H           2.6282    9.2512   16.1317 H       1  UNL1        0.0000
     60 C           1.0350    8.0357   16.8813 C.ar    1  UNL1        0.0000
     61 H           1.1496    8.3606   17.9044 H       1  UNL1        0.0000
     62 C           0.0317    7.1356   16.5570 C.ar    1  UNL1        0.0000
     63 H          -0.6210    6.7658   17.3318 H       1  UNL1        0.0000
     64 C          -0.1264    6.7116   15.2488 C.ar    1  UNL1        0.0000
     65 C          -2.3591    6.0534   15.5493 C.3     1  UNL1        0.0000
     66 H          -2.3444    5.5355   16.5141 H       1  UNL1        0.0000
     67 H          -3.1430    5.6361   14.9231 H       1  UNL1        0.0000
     68 H          -2.5577    7.1175   15.7131 H       1  UNL1        0.0000
@<TRIPOS>BOND
     1    54    51    1
     2    45    43    1
     3    52    51    1
     4    51    53    1
     5    51     1    1
     6    44    43    1
     7    43    46    1
     8    43     1    1
     9     1    40    1
    10     1    47    1
    11    12    10    1
    12    26    23    1
    13    42    40    1
    14    25    23    1
    15    41    40    1
    16    40    39    1
    17    24    23    1
    18    50    47    1
    19    23    22    1
    20    11    10    1
    21    10    13    1
    22    10     5    1
    23    47    48    1
    24    47    49    1
    25     9     6    1
    26    32    31    1
    27    38    37    1
    28    39    36    1
    29    39     2    1
    30     6     7    1
    31     6     5    1
    32     6     8    1
    33    37    18   ar
    34    37    36   ar
    35     5    18    1
    36     5    14    1
    37    18    19   ar
    38    22    31    1
    39    22    21    1
    40    22    27    1
    41    33    31    1
    42    36    35   ar
    43    31    34    1
    44    19    20    1
    45    19    21   ar
    46    21    35   ar
    47    35     3    1
    48     2    55    1
    49    29    27    1
    50    27    30    1
    51    27    28    1
    52    14    17    1
    53    14    15    1
    54    14    16    1
    55    57    56    1
    56    55    56   ar
    57    55    64   ar
    58    56    58   ar
    59     4    64    1
    60     4    65    1
    61    67    65    1
    62    64    62   ar
    63    65    68    1
    64    65    66    1
    65    58    59    1
    66    58    60   ar
    67    62    60   ar
    68    62    63    1
    69    60    61    1
