@<TRIPOS>MOLECULE
1,2
 53 54 0 0 0
SMALL
GASTEIGER

@<TRIPOS>ATOM
      1 N          -1.7539    2.9563   14.2141 N.pl3   1  UNL1       -0.2367
      2 O           0.8718    3.7738   14.8811 O.3     1  UNL1       -0.2872
      3 O          -1.7473    1.2714   12.0655 O.3     1  UNL1       -0.4932
      4 C          -0.8318    3.3435   16.4618 C.ar    1  UNL1        0.0240
      5 C          -1.2677    3.3906   17.8050 C.ar    1  UNL1       -0.0493
      6 H          -2.2818    3.0772   18.0048 H       1  UNL1        0.0625
      7 C          -0.4620    3.8522   18.8080 C.ar    1  UNL1       -0.0412
      8 C          -0.9121    4.0211   20.2505 C.3     1  UNL1       -0.0127
      9 C          -2.3844    3.6505   20.4509 C.3     1  UNL1       -0.0560
     10 H          -2.6613    3.8105   21.4912 H       1  UNL1        0.0238
     11 H          -2.5593    2.6036   20.2140 H       1  UNL1        0.0238
     12 H          -3.0317    4.2681   19.8321 H       1  UNL1        0.0238
     13 C          -0.7292    5.4896   20.6602 C.3     1  UNL1       -0.0560
     14 H          -1.0263    5.6314   21.6974 H       1  UNL1        0.0238
     15 H          -1.3447    6.1342   20.0356 H       1  UNL1        0.0238
     16 H           0.3056    5.8033   20.5556 H       1  UNL1        0.0238
     17 C          -0.0657    3.1198   21.1602 C.3     1  UNL1       -0.0560
     18 H           0.9857    3.3893   21.1185 H       1  UNL1        0.0238
     19 H          -0.1635    2.0804   20.8537 H       1  UNL1        0.0238
     20 H          -0.3983    3.2088   22.1926 H       1  UNL1        0.0238
     21 C           0.8700    4.1553   18.4663 C.ar    1  UNL1       -0.0507
     22 H           1.5246    4.4510   19.2678 H       1  UNL1        0.0625
     23 C           1.3830    4.0729   17.1979 C.ar    1  UNL1        0.0053
     24 C           2.8845    4.1901   16.9619 C.3     1  UNL1       -0.0090
     25 C           3.6575    4.6425   18.2069 C.3     1  UNL1       -0.0559
     26 H           3.3067    5.6123   18.5532 H       1  UNL1        0.0238
     27 H           4.7106    4.7408   17.9509 H       1  UNL1        0.0238
     28 H           3.5805    3.9182   19.0152 H       1  UNL1        0.0238
     29 C           3.3555    2.7758   16.5921 C.3     1  UNL1       -0.0559
     30 H           3.0723    2.0651   17.3679 H       1  UNL1        0.0238
     31 H           4.4375    2.7527   16.4805 H       1  UNL1        0.0238
     32 H           2.8970    2.4774   15.6555 H       1  UNL1        0.0238
     33 C           3.2320    5.1653   15.8342 C.3     1  UNL1       -0.0559
     34 H           2.7215    4.9002   14.9147 H       1  UNL1        0.0238
     35 H           4.3036    5.1489   15.6434 H       1  UNL1        0.0238
     36 H           2.9478    6.1764   16.1121 H       1  UNL1        0.0238
     37 C           0.4966    3.7477   16.1087 C.ar    1  UNL1        0.1877
     38 C          -1.8015    2.9254   15.5120 C.3     1  UNL1        0.0956
     39 H          -2.7197    2.5376   15.9748 H       1  UNL1        0.0591
     40 C          -2.9551    2.6349   13.5597 C.ar    1  UNL1        0.0901
     41 C          -4.1828    3.1114   14.0164 C.ar    1  UNL1       -0.0355
     42 H          -4.2129    3.7252   14.9044 H       1  UNL1        0.0638
     43 C          -5.3628    2.8457   13.3443 C.ar    1  UNL1       -0.0597
     44 H          -6.2945    3.2381   13.7223 H       1  UNL1        0.0618
     45 C          -5.3348    2.0949   12.1876 C.ar    1  UNL1       -0.0582
     46 H          -6.2429    1.8959   11.6394 H       1  UNL1        0.0619
     47 C          -4.1331    1.5798   11.7279 C.ar    1  UNL1       -0.0181
     48 H          -4.1352    0.9853   10.8285 H       1  UNL1        0.0655
     49 C          -2.9488    1.8219   12.4083 C.ar    1  UNL1        0.1425
     50 C          -1.7592    0.2730   11.0719 C.3     1  UNL1        0.0789
     51 H          -2.4627   -0.5275   11.3260 H       1  UNL1        0.0660
     52 H          -0.7496   -0.1336   11.0320 H       1  UNL1        0.0660
     53 H          -2.0153    0.6816   10.0888 H       1  UNL1        0.0660
@<TRIPOS>BOND
     1    53    50    1
     2    48    47    1
     3    52    50    1
     4    50    51    1
     5    50     3    1
     6    46    45    1
     7    47    45   ar
     8    47    49   ar
     9     3    49    1
    10    45    43   ar
    11    49    40   ar
    12    43    44    1
    13    43    41   ar
    14    40    41   ar
    15    40     1    1
    16    41    42    1
    17     1    38    1
    18     2    37    1
    19    34    33    1
    20    38    39    1
    21    38     4    1
    22    35    33    1
    23    32    29    1
    24    33    36    1
    25    33    24    1
    26    37     4   ar
    27    37    23   ar
    28     4     5   ar
    29    31    29    1
    30    29    24    1
    31    29    30    1
    32    24    23    1
    33    24    25    1
    34    23    21   ar
    35     5     6    1
    36     5     7   ar
    37    27    25    1
    38    25    26    1
    39    25    28    1
    40    21     7   ar
    41    21    22    1
    42     7     8    1
    43    12     9    1
    44    15    13    1
    45    11     9    1
    46     8     9    1
    47     8    13    1
    48     8    17    1
    49     9    10    1
    50    16    13    1
    51    13    14    1
    52    19    17    1
    53    18    17    1
    54    17    20    1
