@<TRIPOS>MOLECULE
1,38
 49 50 0 0 0
SMALL
GASTEIGER

@<TRIPOS>ATOM
      1 O           7.1720   11.2834    9.1909 O.3     1  UNL1       -0.2872
      2 C           7.1569   10.0445    9.6032 C.ar    1  UNL1        0.1877
      3 C           8.2368    9.4270   10.2790 C.ar    1  UNL1        0.0053
      4 C           8.0985    8.1023   10.6512 C.ar    1  UNL1       -0.0507
      5 H           8.9276    7.6270   11.1420 H       1  UNL1        0.0625
      6 C           6.9400    7.3425   10.4364 C.ar    1  UNL1       -0.0412
      7 C           5.8781    7.9641    9.8201 C.ar    1  UNL1       -0.0493
      8 H           4.9549    7.4346    9.6399 H       1  UNL1        0.0625
      9 C           5.9662    9.2957    9.3775 C.ar    1  UNL1        0.0240
     10 C           9.5037   10.2225   10.5709 C.3     1  UNL1       -0.0090
     11 C          10.5588    9.4015   11.3192 C.3     1  UNL1       -0.0559
     12 H          10.1885    9.0657   12.2847 H       1  UNL1        0.0238
     13 H          11.4297   10.0280   11.4960 H       1  UNL1        0.0238
     14 H          10.8818    8.5423   10.7365 H       1  UNL1        0.0238
     15 C          10.1296   10.7101    9.2571 C.3     1  UNL1       -0.0559
     16 H          10.4470    9.8616    8.6547 H       1  UNL1        0.0238
     17 H          11.0018   11.3211    9.4769 H       1  UNL1        0.0238
     18 H           9.4282   11.3170    8.6793 H       1  UNL1        0.0238
     19 C           9.1333   11.4281   11.4442 C.3     1  UNL1       -0.0559
     20 H           8.4986   12.1246   10.8991 H       1  UNL1        0.0238
     21 H          10.0337   11.9589   11.7415 H       1  UNL1        0.0238
     22 H           8.6100   11.1025   12.3412 H       1  UNL1        0.0238
     23 C           6.8241    5.8871   10.8642 C.3     1  UNL1       -0.0127
     24 C           8.1065    5.3533   11.5068 C.3     1  UNL1       -0.0560
     25 H           7.9631    4.3102   11.7779 H       1  UNL1        0.0238
     26 H           8.3520    5.9001   12.4139 H       1  UNL1        0.0238
     27 H           8.9443    5.4046   10.8156 H       1  UNL1        0.0238
     28 C           5.6850    5.7590   11.8854 C.3     1  UNL1       -0.0560
     29 H           4.7318    6.0595   11.4595 H       1  UNL1        0.0238
     30 H           5.8848    6.3822   12.7541 H       1  UNL1        0.0238
     31 H           5.5978    4.7273   12.2161 H       1  UNL1        0.0238
     32 C           6.5155    5.0304    9.6281 C.3     1  UNL1       -0.0560
     33 H           5.5707    5.3116    9.1718 H       1  UNL1        0.0238
     34 H           6.4558    3.9822    9.9093 H       1  UNL1        0.0238
     35 H           7.3020    5.1427    8.8852 H       1  UNL1        0.0238
     36 C           4.8280    9.9024    8.7756 C.3     1  UNL1        0.0954
     37 H           3.8894    9.3443    8.8586 H       1  UNL1        0.0591
     38 N           4.8031   11.0380    8.1484 N.pl3   1  UNL1       -0.2403
     39 C           3.5300   11.5183    7.7603 C.ar    1  UNL1        0.0485
     40 C           3.2357   11.7198    6.4150 C.ar    1  UNL1       -0.0391
     41 H           3.9693   11.4453    5.6700 H       1  UNL1        0.0637
     42 C           2.0128   12.2512    6.0484 C.ar    1  UNL1       -0.0600
     43 H           1.7887   12.4058    5.0043 H       1  UNL1        0.0618
     44 C           1.0738   12.5783    7.0134 C.ar    1  UNL1       -0.0616
     45 H           0.1222   12.9951    6.7236 H       1  UNL1        0.0618
     46 C           1.3511   12.3499    8.3500 C.ar    1  UNL1       -0.0600
     47 H           0.6169   12.5848    9.1053 H       1  UNL1        0.0618
     48 C           2.5699   11.8135    8.7264 C.ar    1  UNL1       -0.0391
     49 H           2.7897   11.6404    9.7714 H       1  UNL1        0.0637
@<TRIPOS>BOND
     1    43    42    1
     2    41    40    1
     3    42    40   ar
     4    42    44   ar
     5    40    39   ar
     6    45    44    1
     7    44    46   ar
     8    39    38    1
     9    39    48   ar
    10    38    36    1
    11    46    48   ar
    12    46    47    1
    13    16    15    1
    14    18    15    1
    15    48    49    1
    16    36    37    1
    17    36     9    1
    18    35    32    1
    19    33    32    1
    20     1     2    1
    21    15    17    1
    22    15    10    1
    23     9     2   ar
    24     9     7   ar
    25     2     3   ar
    26    32    34    1
    27    32    23    1
    28     8     7    1
    29     7     6   ar
    30     3    10    1
    31     3     4   ar
    32     6     4   ar
    33     6    23    1
    34    10    11    1
    35    10    19    1
    36     4     5    1
    37    14    11    1
    38    27    24    1
    39    23    24    1
    40    23    28    1
    41    20    19    1
    42    11    13    1
    43    11    12    1
    44    19    21    1
    45    19    22    1
    46    29    28    1
    47    24    25    1
    48    24    26    1
    49    28    31    1
    50    28    30    1
