@<TRIPOS>MOLECULE
1,38
 49 50 0 0 0
SMALL
GASTEIGER

@<TRIPOS>ATOM
      1 O           5.5845   13.3553    6.7440 O.3     1  UNL1       -0.2872
      2 C           4.6758   14.2952    6.6280 C.ar    1  UNL1        0.1877
      3 C           4.3953   14.9587    5.4086 C.ar    1  UNL1        0.0053
      4 C           3.3112   15.8149    5.3800 C.ar    1  UNL1       -0.0507
      5 H           3.0702   16.3007    4.4506 H       1  UNL1        0.0625
      6 C           2.5007   16.0963    6.4883 C.ar    1  UNL1       -0.0412
      7 C           2.8751   15.5599    7.6994 C.ar    1  UNL1       -0.0493
      8 H           2.3478   15.8026    8.6075 H       1  UNL1        0.0625
      9 C           3.9648   14.6827    7.7935 C.ar    1  UNL1        0.0240
     10 C           5.2924   14.7425    4.1965 C.3     1  UNL1       -0.0090
     11 C           4.9012   15.6266    3.0087 C.3     1  UNL1       -0.0559
     12 H           5.6035   15.4585    2.1959 H       1  UNL1        0.0238
     13 H           4.9436   16.6810    3.2705 H       1  UNL1        0.0238
     14 H           3.9068   15.3837    2.6416 H       1  UNL1        0.0238
     15 C           6.7401   15.0811    4.5867 C.3     1  UNL1       -0.0559
     16 H           7.1021   14.4297    5.3847 H       1  UNL1        0.0238
     17 H           6.8148   16.1155    4.9171 H       1  UNL1        0.0238
     18 H           7.3955   14.9511    3.7287 H       1  UNL1        0.0238
     19 C           5.2121   13.2762    3.7573 C.3     1  UNL1       -0.0559
     20 H           4.1842   13.0046    3.5237 H       1  UNL1        0.0238
     21 H           5.5912   12.6303    4.5469 H       1  UNL1        0.0238
     22 H           5.8186   13.1268    2.8672 H       1  UNL1        0.0238
     23 C           1.2957   17.0050    6.3159 C.3     1  UNL1       -0.0127
     24 C           0.4803   17.1368    7.6048 C.3     1  UNL1       -0.0560
     25 H           0.1407   16.1640    7.9534 H       1  UNL1        0.0238
     26 H          -0.3963   17.7514    7.4158 H       1  UNL1        0.0238
     27 H           1.0579   17.6180    8.3903 H       1  UNL1        0.0238
     28 C           1.7757   18.4019    5.8981 C.3     1  UNL1       -0.0560
     29 H           2.4398   18.8159    6.6536 H       1  UNL1        0.0238
     30 H           0.9244   19.0687    5.7878 H       1  UNL1        0.0238
     31 H           2.3095   18.3743    4.9524 H       1  UNL1        0.0238
     32 C           0.3819   16.4202    5.2298 C.3     1  UNL1       -0.0560
     33 H           0.8793   16.3767    4.2655 H       1  UNL1        0.0238
     34 H          -0.5061   17.0377    5.1220 H       1  UNL1        0.0238
     35 H           0.0709   15.4138    5.5012 H       1  UNL1        0.0238
     36 C           4.4338   14.2996    9.0863 C.3     1  UNL1        0.0954
     37 H           3.9516   14.8126    9.9254 H       1  UNL1        0.0591
     38 N           5.3994   13.4858    9.3414 N.pl3   1  UNL1       -0.2403
     39 C           5.8143   13.4145   10.6883 C.ar    1  UNL1        0.0485
     40 C           6.4087   14.5261   11.2801 C.ar    1  UNL1       -0.0391
     41 H           6.5549   15.4216   10.6915 H       1  UNL1        0.0637
     42 C           6.8237   14.4657   12.5982 C.ar    1  UNL1       -0.0600
     43 H           7.2886   15.3290   13.0496 H       1  UNL1        0.0618
     44 C           6.6301   13.3124   13.3395 C.ar    1  UNL1       -0.0616
     45 H           6.9490   13.2707   14.3690 H       1  UNL1        0.0618
     46 C           6.0159   12.2153   12.7583 C.ar    1  UNL1       -0.0600
     47 H           5.8446   11.3195   13.3361 H       1  UNL1        0.0618
     48 C           5.6065   12.2607   11.4378 C.ar    1  UNL1       -0.0391
     49 H           5.1053   11.4088   10.9969 H       1  UNL1        0.0637
@<TRIPOS>BOND
     1    12    11    1
     2    14    11    1
     3    22    19    1
     4    11    13    1
     5    11    10    1
     6    20    19    1
     7    18    15    1
     8    19    10    1
     9    19    21    1
    10    10    15    1
    11    10     3    1
    12    33    32    1
    13     5     4    1
    14    15    17    1
    15    15    16    1
    16    31    28    1
    17    34    32    1
    18    32    35    1
    19    32    23    1
    20     4     3   ar
    21     4     6   ar
    22     3     2   ar
    23    30    28    1
    24    28    23    1
    25    28    29    1
    26    23     6    1
    27    23    24    1
    28     6     7   ar
    29     2     1    1
    30     2     9   ar
    31    26    24    1
    32    24    25    1
    33    24    27    1
    34     7     9   ar
    35     7     8    1
    36     9    36    1
    37    36    38    1
    38    36    37    1
    39    38    39    1
    40    39    40   ar
    41    39    48   ar
    42    41    40    1
    43    49    48    1
    44    40    42   ar
    45    48    46   ar
    46    42    43    1
    47    42    44   ar
    48    46    47    1
    49    46    44   ar
    50    44    45    1
