@<TRIPOS>MOLECULE
2,4
 45 45 0 0 0
SMALL
GASTEIGER

@<TRIPOS>ATOM
      1 SI         -4.4643    5.7728    8.7303 Si      1  UNL1        0.0000
      2 O           1.8870    4.5179    2.5661 O.co2   1  UNL1        0.0000
      3 OXT         1.8177    5.7335    4.4277 O.co2   1  UNL1        0.0000
      4 N          -0.7935    4.0829    2.6940 N.pl3   1  UNL1        0.0000
      5 C          -2.0883    3.7945    2.8019 C.3     1  UNL1        0.0000
      6 H          -2.5357    3.2908    1.9547 H       1  UNL1        0.0000
      7 C          -2.8368    4.1074    3.9168 C.2     1  UNL1        0.0000
      8 H          -3.8830    3.8485    3.9675 H       1  UNL1        0.0000
      9 C          -2.2158    4.7653    4.9856 C.2     1  UNL1        0.0000
     10 C          -0.8643    5.0808    4.8577 C.2     1  UNL1        0.0000
     11 H          -0.3176    5.5959    5.6325 H       1  UNL1        0.0000
     12 CA         -0.1927    4.7183    3.7024 C.2     1  UNL1        0.0000
     13 C           1.3162    5.0342    3.5608 C.2     1  UNL1        0.0000
     14 C          -2.9342    5.0895    6.1573 C.1     1  UNL1        0.0000
     15 C          -3.5490    5.3553    7.1649 C.1     1  UNL1        0.0000
     16 C          -4.8506    4.0872    9.5745 C.3     1  UNL1        0.0000
     17 H          -3.9087    3.7208    9.9965 H       1  UNL1        0.0000
     18 C          -5.3266    3.0316    8.5796 C.3     1  UNL1        0.0000
     19 H          -5.4520    2.0706    9.0774 H       1  UNL1        0.0000
     20 H          -4.6051    2.9108    7.7754 H       1  UNL1        0.0000
     21 H          -6.2808    3.3104    8.1411 H       1  UNL1        0.0000
     22 C          -5.8471    4.2148   10.7244 C.3     1  UNL1        0.0000
     23 H          -6.8292    4.4979   10.3520 H       1  UNL1        0.0000
     24 H          -5.5214    4.9619   11.4449 H       1  UNL1        0.0000
     25 H          -5.9511    3.2635   11.2460 H       1  UNL1        0.0000
     26 C          -5.9670    6.8364    8.1707 C.3     1  UNL1        0.0000
     27 H          -5.5679    7.6094    7.5044 H       1  UNL1        0.0000
     28 C          -6.9806    6.0312    7.3625 C.3     1  UNL1        0.0000
     29 H          -7.4760    5.2948    7.9908 H       1  UNL1        0.0000
     30 H          -6.4928    5.5126    6.5407 H       1  UNL1        0.0000
     31 H          -7.7470    6.6859    6.9489 H       1  UNL1        0.0000
     32 C          -6.6649    7.5467    9.3289 C.3     1  UNL1        0.0000
     33 H          -7.4630    8.1872    8.9540 H       1  UNL1        0.0000
     34 H          -5.9670    8.1682    9.8847 H       1  UNL1        0.0000
     35 H          -7.1066    6.8302   10.0169 H       1  UNL1        0.0000
     36 C          -3.2706    6.8213    9.8066 C.3     1  UNL1        0.0000
     37 H          -3.7741    7.1140   10.7341 H       1  UNL1        0.0000
     38 C          -2.8614    8.0976    9.0751 C.3     1  UNL1        0.0000
     39 H          -2.1851    8.6909    9.6892 H       1  UNL1        0.0000
     40 H          -3.7267    8.7101    8.8352 H       1  UNL1        0.0000
     41 H          -2.3502    7.8518    8.1472 H       1  UNL1        0.0000
     42 C          -2.0218    6.0309   10.1891 C.3     1  UNL1        0.0000
     43 H          -1.4996    5.6926    9.2972 H       1  UNL1        0.0000
     44 H          -2.2750    5.1605   10.7892 H       1  UNL1        0.0000
     45 H          -1.3395    6.6525   10.7676 H       1  UNL1        0.0000
@<TRIPOS>BOND
     1     6     5    1
     2     2    13   ar
     3     4     5    1
     4     4    12    1
     5     5     7    1
     6    13    12    1
     7    13     3   ar
     8    12    10    2
     9     7     8    1
    10     7     9    2
    11    10     9    1
    12    10    11    1
    13     9    14    1
    14    14    15    3
    15    30    28    1
    16    31    28    1
    17    15     1    1
    18    28    29    1
    19    28    26    1
    20    27    26    1
    21    20    18    1
    22    21    18    1
    23    41    38    1
    24    26     1    1
    25    26    32    1
    26    18    19    1
    27    18    16    1
    28     1    16    1
    29     1    36    1
    30    40    38    1
    31    33    32    1
    32    38    39    1
    33    38    36    1
    34    43    42    1
    35    32    34    1
    36    32    35    1
    37    16    17    1
    38    16    22    1
    39    36    42    1
    40    36    37    1
    41    42    45    1
    42    42    44    1
    43    23    22    1
    44    22    25    1
    45    22    24    1
