@<TRIPOS>MOLECULE
1,2
 33 35 0 0 0
SMALL
GASTEIGER

@<TRIPOS>ATOM
      1 O          -4.2752   -5.3131  -10.2020 O.2     1  UNL1       -0.2883
      2 N          -3.5393   -5.6074   -7.6246 N.pl3   1  UNL1       -0.2196
      3 N          -5.4044   -4.7975   -6.7912 N.pl3   1  UNL1       -0.2725
      4 C          -4.6871   -5.0075   -7.9265 C.3     1  UNL1        0.2322
      5 C          -4.6570   -5.2768   -5.7447 C.2     1  UNL1        0.0148
      6 H          -5.0169   -5.2392   -4.7368 H       1  UNL1        0.0797
      7 C          -3.5125   -5.7836   -6.2781 C.2     1  UNL1        0.0285
      8 H          -2.6807   -6.2504   -5.7863 H       1  UNL1        0.0811
      9 C          -4.9903   -4.6783   -9.3295 C.2     1  UNL1        0.2044
     10 C          -5.9582   -3.7538   -9.6209 C.2     1  UNL1       -0.0079
     11 H          -6.4536   -3.2639   -8.7959 H       1  UNL1        0.0660
     12 C          -6.4046   -3.3657  -10.9315 C.ar    1  UNL1       -0.0216
     13 C          -7.5012   -2.4992  -11.0465 C.ar    1  UNL1       -0.0545
     14 H          -7.9711   -2.1255  -10.1457 H       1  UNL1        0.0623
     15 C          -7.9916   -2.1291  -12.2807 C.ar    1  UNL1       -0.0612
     16 H          -8.8421   -1.4638  -12.3436 H       1  UNL1        0.0618
     17 C          -7.3999   -2.6064  -13.4401 C.ar    1  UNL1       -0.0617
     18 H          -7.7855   -2.3172  -14.4072 H       1  UNL1        0.0618
     19 C          -6.3075   -3.4541  -13.3457 C.ar    1  UNL1       -0.0612
     20 H          -5.8360   -3.8251  -14.2456 H       1  UNL1        0.0618
     21 C          -5.8142   -3.8315  -12.1136 C.ar    1  UNL1       -0.0545
     22 H          -4.9611   -4.4882  -12.0458 H       1  UNL1        0.0623
     23 C          -6.7260   -4.3262   -6.6427 C.ar    1  UNL1        0.0359
     24 C          -7.7687   -4.9760   -7.2938 C.ar    1  UNL1       -0.0403
     25 H          -7.5538   -5.8154   -7.9382 H       1  UNL1        0.0636
     26 C          -9.0629   -4.5240   -7.1204 C.ar    1  UNL1       -0.0600
     27 H          -9.8743   -5.0188   -7.6315 H       1  UNL1        0.0618
     28 C          -9.3211   -3.4417   -6.2938 C.ar    1  UNL1       -0.0616
     29 H         -10.3339   -3.0915   -6.1646 H       1  UNL1        0.0618
     30 C          -8.2815   -2.8101   -5.6332 C.ar    1  UNL1       -0.0600
     31 H          -8.4803   -1.9685   -4.9870 H       1  UNL1        0.0618
     32 C          -6.9804   -3.2509   -5.8019 C.ar    1  UNL1       -0.0403
     33 H          -6.1612   -2.7585   -5.2992 H       1  UNL1        0.0636
@<TRIPOS>BOND
     1    18    17    1
     2    20    19    1
     3    17    19   ar
     4    17    15   ar
     5    19    21   ar
     6    16    15    1
     7    15    13   ar
     8    21    22    1
     9    21    12   ar
    10    13    12   ar
    11    13    14    1
    12    12    10    1
    13     1     9    1
    14    10     9    2
    15    10    11    1
    16     9     4    1
    17    25    24    1
    18     4     2    1
    19     4     3    1
    20    27    26    1
    21     2     7    1
    22    24    26   ar
    23    24    23   ar
    24    26    28   ar
    25     3    23    1
    26     3     5    1
    27    23    32   ar
    28    28    29    1
    29    28    30   ar
    30     7     8    1
    31     7     5    2
    32    32    30   ar
    33    32    33    1
    34     5     6    1
    35    30    31    1
