@<TRIPOS>MOLECULE
2,6
 48 48 0 0 0
SMALL
GASTEIGER

@<TRIPOS>ATOM
      1 SI         10.2370    3.4327   10.6562 Si      1  UNL1        0.0000
      2 O           2.8742    2.9533   11.5769 O.2     1  UNL1        0.0000
      3 O           9.9232    4.1071   12.1111 O.3     1  UNL1        0.0000
      4 O          11.6672    4.0452   10.1775 O.3     1  UNL1        0.0000
      5 O          10.4070    1.8177   10.6941 O.3     1  UNL1        0.0000
      6 N           5.0440    3.5761    9.7898 N.pl3   1  UNL1        0.0000
      7 C           2.3781    2.3920   10.5393 C.2     1  UNL1        0.0000
      8 C           1.0848    1.8169   10.6528 C.2     1  UNL1        0.0000
      9 H           0.6071    1.8760   11.6193 H       1  UNL1        0.0000
     10 C           0.4795    1.1876    9.6005 C.2     1  UNL1        0.0000
     11 H          -0.4969    0.7437    9.7326 H       1  UNL1        0.0000
     12 C           1.1137    1.1086    8.3571 C.2     1  UNL1        0.0000
     13 H           0.6311    0.6063    7.5331 H       1  UNL1        0.0000
     14 C           2.3494    1.6775    8.2005 C.3     1  UNL1        0.0000
     15 H           2.8468    1.6273    7.2415 H       1  UNL1        0.0000
     16 C           3.0108    2.3304    9.2583 C.2     1  UNL1        0.0000
     17 C           4.2659    2.9428    8.9777 C.2     1  UNL1        0.0000
     18 H           4.5697    2.8875    7.9292 H       1  UNL1        0.0000
     19 C           6.2814    4.1168    9.2669 C.3     1  UNL1        0.0000
     20 H           6.3707    5.1581    9.5961 H       1  UNL1        0.0000
     21 H           6.2675    4.1096    8.1695 H       1  UNL1        0.0000
     22 C           7.4888    3.3185    9.7770 C.3     1  UNL1        0.0000
     23 H           7.5190    2.3540    9.2709 H       1  UNL1        0.0000
     24 H           7.3403    3.1196   10.8403 H       1  UNL1        0.0000
     25 C           8.8039    4.0623    9.5690 C.3     1  UNL1        0.0000
     26 H           8.6530    5.1190    9.7957 H       1  UNL1        0.0000
     27 H           9.0776    4.0179    8.5154 H       1  UNL1        0.0000
     28 C          10.8404    4.4222   13.1385 C.3     1  UNL1        0.0000
     29 H          11.8324    4.5728   12.7050 H       1  UNL1        0.0000
     30 H          10.8920    3.5764   13.8357 H       1  UNL1        0.0000
     31 C          10.3870    5.6802   13.8650 C.3     1  UNL1        0.0000
     32 H          10.3276    6.5080   13.1634 H       1  UNL1        0.0000
     33 H          11.0983    5.9288   14.6479 H       1  UNL1        0.0000
     34 H           9.4072    5.5302   14.3119 H       1  UNL1        0.0000
     35 C          12.5989    3.5130    9.2690 C.3     1  UNL1        0.0000
     36 H          12.9709    2.5596    9.6593 H       1  UNL1        0.0000
     37 H          13.4260    4.2298    9.2302 H       1  UNL1        0.0000
     38 C          12.0127    3.3010    7.8829 C.3     1  UNL1        0.0000
     39 H          11.2165    2.5642    7.9383 H       1  UNL1        0.0000
     40 H          12.7842    2.9476    7.2042 H       1  UNL1        0.0000
     41 H          11.6041    4.2344    7.5044 H       1  UNL1        0.0000
     42 C           9.9130    0.8223   11.5675 C.3     1  UNL1        0.0000
     43 H          10.7514    0.1358   11.7372 H       1  UNL1        0.0000
     44 H           9.6326    1.2743   12.5237 H       1  UNL1        0.0000
     45 C           8.7321    0.0648   10.9803 C.3     1  UNL1        0.0000
     46 H           7.8264    0.6641   10.9951 H       1  UNL1        0.0000
     47 H           8.5519   -0.8306   11.5686 H       1  UNL1        0.0000
     48 H           8.9544   -0.2273    9.9574 H       1  UNL1        0.0000
@<TRIPOS>BOND
     1    40    38    1
     2    15    14    1
     3    41    38    1
     4    13    12    1
     5    38    39    1
     6    38    35    1
     7    18    17    1
     8    21    19    1
     9    14    12    1
    10    14    16    1
    11    12    10    2
    12    27    25    1
    13    17    16    2
    14    17     6    1
    15    37    35    1
    16    16     7    1
    17    19    20    1
    18    19    22    1
    19    19     6    1
    20    35    36    1
    21    35     4    1
    22    23    22    1
    23    25    22    1
    24    25    26    1
    25    25     1    1
    26    10    11    1
    27    10     8    1
    28    22    24    1
    29    48    45    1
    30     4     1    1
    31     7     8    2
    32     7     2    1
    33     8     9    1
    34     1     5    1
    35     1     3    1
    36     5    42    1
    37    45    46    1
    38    45    42    1
    39    45    47    1
    40    42    43    1
    41    42    44    1
    42     3    28    1
    43    29    28    1
    44    28    30    1
    45    28    31    1
    46    32    31    1
    47    31    34    1
    48    31    33    1
