@<TRIPOS>MOLECULE
2,6
 72 72 0 0 0
SMALL
GASTEIGER

@<TRIPOS>ATOM
      1 SI          1.8762    3.0746    7.1529 Si      1  UNL1        0.0000
      2 O          -5.7012    3.0920    8.3997 O.3     1  UNL1        0.0000
      3 O           2.4633    2.8792    8.6612 O.3     1  UNL1        0.0000
      4 O           2.9652    2.7951    5.9556 O.3     1  UNL1        0.0000
      5 O           1.5368    4.6519    7.0144 O.3     1  UNL1        0.0000
      6 N          -3.1559    1.7619    8.2850 N.3     1  UNL1        0.0000
      7 C          -5.8127    2.5514    9.5380 C.ar    1  UNL1        0.0000
      8 C          -4.7883    1.7384   10.1211 C.ar    1  UNL1        0.0000
      9 C          -4.9609    1.2028   11.4141 C.ar    1  UNL1        0.0000
     10 H          -4.1537    0.5990   11.8029 H       1  UNL1        0.0000
     11 C          -6.0880    1.4325   12.1532 C.ar    1  UNL1        0.0000
     12 C          -7.1043    2.2102   11.5596 C.ar    1  UNL1        0.0000
     13 H          -8.0012    2.3741   12.1348 H       1  UNL1        0.0000
     14 C          -7.0156    2.7549   10.3090 C.ar    1  UNL1        0.0000
     15 C          -8.1435    3.5679    9.6868 C.3     1  UNL1        0.0000
     16 C          -8.5997    2.8828    8.3912 C.3     1  UNL1        0.0000
     17 H          -8.9324    1.8660    8.5963 H       1  UNL1        0.0000
     18 H          -7.7871    2.8424    7.6719 H       1  UNL1        0.0000
     19 H          -9.4215    3.4379    7.9417 H       1  UNL1        0.0000
     20 C          -9.3619    3.6909   10.6107 C.3     1  UNL1        0.0000
     21 H          -9.7784    2.7133   10.8470 H       1  UNL1        0.0000
     22 H         -10.1340    4.2702   10.1065 H       1  UNL1        0.0000
     23 H          -9.1073    4.2061   11.5358 H       1  UNL1        0.0000
     24 C          -7.6435    4.9854    9.3731 C.3     1  UNL1        0.0000
     25 H          -8.4599    5.5927    8.9858 H       1  UNL1        0.0000
     26 H          -6.8592    4.9527    8.6223 H       1  UNL1        0.0000
     27 H          -7.2506    5.4586   10.2729 H       1  UNL1        0.0000
     28 C          -6.3014    0.8935   13.5604 C.3     1  UNL1        0.0000
     29 C          -7.5437   -0.0084   13.5793 C.3     1  UNL1        0.0000
     30 H          -7.6994   -0.4210   14.5756 H       1  UNL1        0.0000
     31 H          -7.4174   -0.8307   12.8783 H       1  UNL1        0.0000
     32 H          -8.4355    0.5434   13.2958 H       1  UNL1        0.0000
     33 C          -6.5010    2.0700   14.5269 C.3     1  UNL1        0.0000
     34 H          -5.6282    2.7196   14.5086 H       1  UNL1        0.0000
     35 H          -6.6433    1.7073   15.5443 H       1  UNL1        0.0000
     36 H          -7.3690    2.6624   14.2513 H       1  UNL1        0.0000
     37 C          -5.1111    0.0688   14.0592 C.3     1  UNL1        0.0000
     38 H          -4.2053    0.6703   14.0851 H       1  UNL1        0.0000
     39 H          -4.9444   -0.7963   13.4218 H       1  UNL1        0.0000
     40 H          -5.3098   -0.2880   15.0693 H       1  UNL1        0.0000
     41 C          -3.5893    1.3935    9.4425 C.3     1  UNL1        0.0000
     42 H          -2.9544    0.6931    9.9998 H       1  UNL1        0.0000
     43 C          -1.8996    1.2151    7.8315 C.3     1  UNL1        0.0000
     44 H          -1.6099    0.3521    8.4488 H       1  UNL1        0.0000
     45 H          -2.0343    0.8664    6.8018 H       1  UNL1        0.0000
     46 C          -0.7848    2.2673    7.8774 C.3     1  UNL1        0.0000
     47 H          -0.4999    2.4494    8.9151 H       1  UNL1        0.0000
     48 H          -1.1742    3.2027    7.4699 H       1  UNL1        0.0000
     49 C           0.4387    1.8329    7.0758 C.3     1  UNL1        0.0000
     50 H           0.1360    1.6812    6.0383 H       1  UNL1        0.0000
     51 H           0.7713    0.8610    7.4453 H       1  UNL1        0.0000
     52 C           3.1142    3.8257    9.4724 C.3     1  UNL1        0.0000
     53 H           2.5524    4.7640    9.4476 H       1  UNL1        0.0000
     54 H           3.0960    3.4227   10.4911 H       1  UNL1        0.0000
     55 C           4.5474    4.0710    9.0218 C.3     1  UNL1        0.0000
     56 H           5.1145    3.1440    9.0573 H       1  UNL1        0.0000
     57 H           5.0224    4.8060    9.6668 H       1  UNL1        0.0000
     58 H           4.5398    4.4367    7.9989 H       1  UNL1        0.0000
     59 C           3.4797    1.5680    5.5101 C.3     1  UNL1        0.0000
     60 H           2.6529    0.8962    5.2528 H       1  UNL1        0.0000
     61 H           4.0504    1.7855    4.6002 H       1  UNL1        0.0000
     62 C           4.3739    0.9073    6.5501 C.3     1  UNL1        0.0000
     63 H           5.2141    1.5564    6.7826 H       1  UNL1        0.0000
     64 H           4.7473   -0.0420    6.1746 H       1  UNL1        0.0000
     65 H           3.8042    0.7413    7.4598 H       1  UNL1        0.0000
     66 C           1.2076    5.4048    5.8698 C.3     1  UNL1        0.0000
     67 H           1.9156    5.1645    5.0694 H       1  UNL1        0.0000
     68 H           1.3375    6.4540    6.1572 H       1  UNL1        0.0000
     69 C          -0.2166    5.1623    5.3982 C.3     1  UNL1        0.0000
     70 H          -0.3407    4.1267    5.0964 H       1  UNL1        0.0000
     71 H          -0.4406    5.8051    4.5512 H       1  UNL1        0.0000
     72 H          -0.9227    5.3784    6.1953 H       1  UNL1        0.0000
@<TRIPOS>BOND
     1    71    69    1
     2    61    59    1
     3    67    66    1
     4    70    69    1
     5    60    59    1
     6    69    66    1
     7    69    72    1
     8    59     4    1
     9    59    62    1
    10    66    68    1
    11    66     5    1
    12     4     1    1
    13    50    49    1
    14    64    62    1
    15    62    63    1
    16    62    65    1
    17    45    43    1
    18     5     1    1
    19    49     1    1
    20    49    51    1
    21    49    46    1
    22     1     3    1
    23    48    46    1
    24    18    16    1
    25    43    46    1
    26    43     6    1
    27    43    44    1
    28    46    47    1
    29    19    16    1
    30    58    55    1
    31     6    41    1
    32    16    17    1
    33    16    15    1
    34     2     7    1
    35    26    24    1
    36     3    52    1
    37    25    24    1
    38    55    56    1
    39    55    52    1
    40    55    57    1
    41    24    15    1
    42    24    27    1
    43    41    42    1
    44    41     8    1
    45    53    52    1
    46    52    54    1
    47     7     8   ar
    48     7    14   ar
    49    15    14    1
    50    15    20    1
    51    22    20    1
    52     8     9   ar
    53    14    12   ar
    54    20    21    1
    55    20    23    1
    56     9    10    1
    57     9    11   ar
    58    12    13    1
    59    12    11   ar
    60    11    28    1
    61    31    29    1
    62    32    29    1
    63    39    37    1
    64    28    29    1
    65    28    37    1
    66    28    33    1
    67    29    30    1
    68    37    38    1
    69    37    40    1
    70    36    33    1
    71    34    33    1
    72    33    35    1
