@<TRIPOS>MOLECULE
1,2
 43 44 0 0 0
SMALL
GASTEIGER

@<TRIPOS>ATOM
      1 O           5.5587   16.8899    8.2091 O.3     1  UNL1       -0.1940
      2 N           7.3401   16.4974    9.4077 N.pl3   1  UNL1       -0.2051
      3 C           6.0398   16.4574    9.3121 C.3     1  UNL1        0.2659
      4 C           5.0953   15.9988   10.3665 C.ar    1  UNL1        0.0118
      5 C           3.7887   16.4836   10.3060 C.ar    1  UNL1       -0.0539
      6 H           3.5157   17.1455    9.4961 H       1  UNL1        0.0622
      7 C           2.8578   16.1256   11.2614 C.ar    1  UNL1       -0.0614
      8 H           1.8518   16.5146   11.2058 H       1  UNL1        0.0618
      9 C           3.2159   15.2666   12.2875 C.ar    1  UNL1       -0.0617
     10 H           2.4910   14.9850   13.0366 H       1  UNL1        0.0618
     11 C           4.5058   14.7658   12.3457 C.ar    1  UNL1       -0.0614
     12 H           4.7868   14.0885   13.1384 H       1  UNL1        0.0618
     13 C           5.4450   15.1279   11.3962 C.ar    1  UNL1       -0.0539
     14 H           6.4426   14.7255   11.4582 H       1  UNL1        0.0622
     15 C           8.1043   16.1879   10.5382 C.ar    1  UNL1        0.0583
     16 C           8.9187   15.0408   10.4939 C.ar    1  UNL1       -0.0219
     17 C           9.6867   14.7328   11.6052 C.ar    1  UNL1       -0.0565
     18 H          10.3050   13.8495   11.6054 H       1  UNL1        0.0621
     19 C           9.6740   15.5456   12.7260 C.ar    1  UNL1       -0.0611
     20 H          10.2713   15.2851   13.5871 H       1  UNL1        0.0618
     21 C           8.9145   16.6991   12.7367 C.ar    1  UNL1       -0.0565
     22 H           8.9368   17.3394   13.6056 H       1  UNL1        0.0621
     23 C           8.1248   17.0454   11.6490 C.ar    1  UNL1       -0.0219
     24 C           8.9029   14.1908    9.2442 C.3     1  UNL1       -0.0197
     25 H           8.7865   14.8720    8.3826 H       1  UNL1        0.0344
     26 C           7.6966   13.2425    9.2677 C.3     1  UNL1       -0.0586
     27 H           7.6988   12.6431   10.1780 H       1  UNL1        0.0235
     28 H           7.7369   12.5707    8.4143 H       1  UNL1        0.0235
     29 H           6.7625   13.7980    9.2126 H       1  UNL1        0.0235
     30 C          10.1843   13.3811    9.0582 C.3     1  UNL1       -0.0586
     31 H          11.0594   14.0236    9.1080 H       1  UNL1        0.0235
     32 H          10.1712   12.9025    8.0823 H       1  UNL1        0.0235
     33 H          10.2704   12.5974    9.8084 H       1  UNL1        0.0235
     34 C           7.3600   18.3508   11.6491 C.3     1  UNL1       -0.0197
     35 H           6.8133   18.4476   10.6988 H       1  UNL1        0.0344
     36 C           6.3444   18.4072   12.7922 C.3     1  UNL1       -0.0586
     37 H           5.6535   17.5681   12.7365 H       1  UNL1        0.0235
     38 H           5.7709   19.3309   12.7414 H       1  UNL1        0.0235
     39 H           6.8476   18.3723   13.7554 H       1  UNL1        0.0235
     40 C           8.3399   19.5252   11.7318 C.3     1  UNL1       -0.0586
     41 H           8.9208   19.4849   12.6501 H       1  UNL1        0.0235
     42 H           7.7970   20.4680   11.7089 H       1  UNL1        0.0235
     43 H           9.0275   19.4971   10.8877 H       1  UNL1        0.0235
@<TRIPOS>BOND
     1    32    30    1
     2     1     3    1
     3    25    24    1
     4    28    26    1
     5    30    31    1
     6    30    24    1
     7    30    33    1
     8    29    26    1
     9    24    26    1
    10    24    16    1
    11    26    27    1
    12     3     2    1
    13     3     4    1
    14     2    15    1
    15     6     5    1
    16     5     4   ar
    17     5     7   ar
    18     4    13   ar
    19    16    15   ar
    20    16    17   ar
    21    15    23   ar
    22    35    34    1
    23    43    40    1
    24     8     7    1
    25     7     9   ar
    26    13    14    1
    27    13    11   ar
    28    17    18    1
    29    17    19   ar
    30    23    34    1
    31    23    21   ar
    32    34    40    1
    33    34    36    1
    34    42    40    1
    35    40    41    1
    36     9    11   ar
    37     9    10    1
    38    11    12    1
    39    19    21   ar
    40    19    20    1
    41    37    36    1
    42    21    22    1
    43    38    36    1
    44    36    39    1
