@<TRIPOS>MOLECULE
1,2
 43 44 0 0 0
SMALL
GASTEIGER

@<TRIPOS>ATOM
      1 O           5.0123    3.4935    9.8744 O.3     1  UNL1       -0.1940
      2 N           3.6523    3.9343   11.5376 N.pl3   1  UNL1       -0.2051
      3 C           3.8721    3.2947   10.4187 C.3     1  UNL1        0.2659
      4 C           2.8833    2.4528    9.6999 C.ar    1  UNL1        0.0118
      5 C           3.3503    1.5594    8.7378 C.ar    1  UNL1       -0.0539
      6 H           4.4152    1.4954    8.5651 H       1  UNL1        0.0622
      7 C           2.4633    0.7771    8.0240 C.ar    1  UNL1       -0.0614
      8 H           2.8312    0.0815    7.2842 H       1  UNL1        0.0618
      9 C           1.1012    0.8892    8.2531 C.ar    1  UNL1       -0.0617
     10 H           0.4066    0.2796    7.6940 H       1  UNL1        0.0618
     11 C           0.6298    1.7893    9.1951 C.ar    1  UNL1       -0.0614
     12 H          -0.4323    1.8848    9.3668 H       1  UNL1        0.0618
     13 C           1.5133    2.5687    9.9198 C.ar    1  UNL1       -0.0539
     14 H           1.1415    3.2708   10.6506 H       1  UNL1        0.0622
     15 C           2.7041    3.6820   12.5188 C.ar    1  UNL1        0.0583
     16 C           2.5913    2.4115   13.1236 C.ar    1  UNL1       -0.0219
     17 C           1.6983    2.2522   14.1735 C.ar    1  UNL1       -0.0565
     18 H           1.5997    1.2833   14.6404 H       1  UNL1        0.0621
     19 C           0.9281    3.3010   14.6368 C.ar    1  UNL1       -0.0611
     20 H           0.2324    3.1473   15.4485 H       1  UNL1        0.0618
     21 C           1.0559    4.5479   14.0539 C.ar    1  UNL1       -0.0565
     22 H           0.4544    5.3664   14.4187 H       1  UNL1        0.0621
     23 C           1.9375    4.7597   13.0065 C.ar    1  UNL1       -0.0219
     24 C           2.0376    6.1248   12.3625 C.3     1  UNL1       -0.0197
     25 H           2.9449    6.1519   11.7352 H       1  UNL1        0.0344
     26 C           0.8110    6.3642   11.4758 C.3     1  UNL1       -0.0586
     27 H           0.7726    5.6436   10.6635 H       1  UNL1        0.0235
     28 H           0.8502    7.3610   11.0442 H       1  UNL1        0.0235
     29 H          -0.1033    6.2761   12.0611 H       1  UNL1        0.0235
     30 C           2.1360    7.2421   13.4066 C.3     1  UNL1       -0.0586
     31 H           1.1656    7.4471   13.8541 H       1  UNL1        0.0235
     32 H           2.4896    8.1559   12.9352 H       1  UNL1        0.0235
     33 H           2.8274    6.9718   14.2013 H       1  UNL1        0.0235
     34 C           3.4297    1.2248   12.6990 C.3     1  UNL1       -0.0197
     35 H           4.0711    1.5151   11.8610 H       1  UNL1        0.0344
     36 C           2.5435    0.0645   12.2370 C.3     1  UNL1       -0.0586
     37 H           1.9668   -0.3365   13.0671 H       1  UNL1        0.0235
     38 H           3.1565   -0.7373   11.8299 H       1  UNL1        0.0235
     39 H           1.8516    0.3926   11.4645 H       1  UNL1        0.0235
     40 C           4.3540    0.7753   13.8358 C.3     1  UNL1       -0.0586
     41 H           5.1120    1.5328   14.0216 H       1  UNL1        0.0235
     42 H           4.8602   -0.1479   13.5592 H       1  UNL1        0.0235
     43 H           3.7983    0.5989   14.7540 H       1  UNL1        0.0235
@<TRIPOS>BOND
     1     8     7    1
     2    10     9    1
     3     7     9   ar
     4     7     5   ar
     5     9    11   ar
     6     6     5    1
     7     5     4   ar
     8    11    12    1
     9    11    13   ar
    10     4    13   ar
    11     4     3    1
    12     1     3    1
    13    13    14    1
    14     3     2    1
    15    27    26    1
    16    28    26    1
    17    39    36    1
    18    26    29    1
    19    26    24    1
    20     2    15    1
    21    25    24    1
    22    38    36    1
    23    35    34    1
    24    36    34    1
    25    36    37    1
    26    24    23    1
    27    24    30    1
    28    15    23   ar
    29    15    16   ar
    30    34    16    1
    31    34    40    1
    32    32    30    1
    33    23    21   ar
    34    16    17   ar
    35    30    31    1
    36    30    33    1
    37    42    40    1
    38    40    41    1
    39    40    43    1
    40    21    22    1
    41    21    19   ar
    42    17    19   ar
    43    17    18    1
    44    19    20    1
