@<TRIPOS>MOLECULE
1,2
 43 44 0 0 0
SMALL
GASTEIGER

@<TRIPOS>ATOM
      1 O           6.2502    3.0626   12.4058 O.3     1  UNL1       -0.1940
      2 N           7.5222    4.5020   11.3345 N.pl3   1  UNL1       -0.2051
      3 C           8.6663    4.9126   10.6373 C.ar    1  UNL1        0.0583
      4 C           9.3682    6.0376   11.1011 C.ar    1  UNL1       -0.0219
      5 C          10.4987    6.4599   10.4200 C.ar    1  UNL1       -0.0565
      6 H          11.0441    7.3235   10.7701 H       1  UNL1        0.0621
      7 C          10.9403    5.7882    9.2958 C.ar    1  UNL1       -0.0611
      8 H          11.8268    6.1220    8.7771 H       1  UNL1        0.0618
      9 C          10.2320    4.6982    8.8283 C.ar    1  UNL1       -0.0565
     10 H          10.5697    4.1958    7.9345 H       1  UNL1        0.0621
     11 C           9.0952    4.2412    9.4799 C.ar    1  UNL1       -0.0219
     12 C           8.2972    3.1054    8.8808 C.3     1  UNL1       -0.0197
     13 H           7.4967    2.8151    9.5716 H       1  UNL1        0.0344
     14 C           7.6184    3.6139    7.6064 C.3     1  UNL1       -0.0586
     15 H           6.9817    4.4590    7.8625 H       1  UNL1        0.0235
     16 H           7.0022    2.8329    7.1657 H       1  UNL1        0.0235
     17 H           8.3564    3.9316    6.8724 H       1  UNL1        0.0235
     18 C           9.1601    1.8728    8.6027 C.3     1  UNL1       -0.0586
     19 H           9.8853    2.0716    7.8173 H       1  UNL1        0.0235
     20 H           8.5325    1.0447    8.2792 H       1  UNL1        0.0235
     21 H           9.6981    1.5679    9.4982 H       1  UNL1        0.0235
     22 C           8.8775    6.7939   12.3150 C.3     1  UNL1       -0.0197
     23 H           8.0108    6.2533   12.7216 H       1  UNL1        0.0344
     24 C           8.4109    8.1869   11.8870 C.3     1  UNL1       -0.0586
     25 H           9.2372    8.7528   11.4632 H       1  UNL1        0.0235
     26 H           8.0204    8.7368   12.7413 H       1  UNL1        0.0235
     27 H           7.6319    8.0879   11.1341 H       1  UNL1        0.0235
     28 C           9.9454    6.8820   13.4080 C.3     1  UNL1       -0.0586
     29 H          10.8149    7.4349   13.0614 H       1  UNL1        0.0235
     30 H          10.2708    5.8889   13.7121 H       1  UNL1        0.0235
     31 H           9.5438    7.3918   14.2820 H       1  UNL1        0.0235
     32 C           7.3854    3.3356   11.9277 C.3     1  UNL1        0.2659
     33 C           8.4884    2.3440   12.0827 C.ar    1  UNL1        0.0118
     34 C           8.1559    0.9930   12.0254 C.ar    1  UNL1       -0.0539
     35 H           7.1227    0.7182   11.8685 H       1  UNL1        0.0622
     36 C           9.1340    0.0259   12.1575 C.ar    1  UNL1       -0.0614
     37 H           8.8704   -1.0202   12.1014 H       1  UNL1        0.0618
     38 C          10.4523    0.3997   12.3614 C.ar    1  UNL1       -0.0617
     39 H          11.2193   -0.3543   12.4619 H       1  UNL1        0.0618
     40 C          10.7854    1.7419   12.4410 C.ar    1  UNL1       -0.0614
     41 H          11.8113    2.0347   12.6096 H       1  UNL1        0.0618
     42 C           9.8109    2.7142   12.3022 C.ar    1  UNL1       -0.0539
     43 H          10.0775    3.7577   12.3706 H       1  UNL1        0.0622
@<TRIPOS>BOND
     1    17    14    1
     2    16    14    1
     3    14    15    1
     4    14    12    1
     5    19    18    1
     6    10     9    1
     7    20    18    1
     8    18    12    1
     9    18    21    1
    10     8     7    1
    11     9     7   ar
    12     9    11   ar
    13    12    11    1
    14    12    13    1
    15     7     5   ar
    16    11     3   ar
    17     5     6    1
    18     5     4   ar
    19     3     4   ar
    20     3     2    1
    21     4    22    1
    22    27    24    1
    23     2    32    1
    24    25    24    1
    25    35    34    1
    26    24    22    1
    27    24    26    1
    28    32    33    1
    29    32     1    1
    30    34    33   ar
    31    34    36   ar
    32    33    42   ar
    33    37    36    1
    34    36    38   ar
    35    42    43    1
    36    42    40   ar
    37    22    23    1
    38    22    28    1
    39    38    40   ar
    40    38    39    1
    41    40    41    1
    42    29    28    1
    43    28    30    1
    44    28    31    1
