@<TRIPOS>MOLECULE
68,71
 71 74 0 0 0
SMALL
GASTEIGER

@<TRIPOS>ATOM
      1 SI          1.5502    6.2351   12.4719 Si      1  UNL1        0.0000
      2 C           4.8288    3.1175   11.1365 C.ar    1  UNL1        0.0000
      3 C           3.5684    2.6006   11.3481 C.ar    1  UNL1        0.0000
      4 C           2.6796    3.7179   11.4208 C.ar    1  UNL1        0.0000
      5 C           1.2575    3.7597   11.6326 C.2     1  UNL1        0.0000
      6 C           2.8825    6.2389   11.0696 C.3     1  UNL1        0.0000
      7 C           3.4690    4.8628   11.2439 C.ar    1  UNL1        0.0000
      8 C           3.9108    7.3813   11.2820 C.3     1  UNL1        0.0000
      9 H           4.2923    7.2590   12.3193 H       1  UNL1        0.0000
     10 C           6.1570    2.4059   11.1136 C.3     1  UNL1        0.0000
     11 H           6.9390    3.1782   10.9835 H       1  UNL1        0.0000
     12 C           6.2815    1.4058    9.9588 C.3     1  UNL1        0.0000
     13 H           5.6121    0.5650   10.1163 H       1  UNL1        0.0000
     14 H           7.2996    1.0242    9.9047 H       1  UNL1        0.0000
     15 H           6.0363    1.8728    9.0081 H       1  UNL1        0.0000
     16 C           6.3956    1.6770   12.4425 C.3     1  UNL1        0.0000
     17 H           6.2421    2.3476   13.2855 H       1  UNL1        0.0000
     18 H           7.4089    1.2818   12.4856 H       1  UNL1        0.0000
     19 H           5.6979    0.8492   12.5423 H       1  UNL1        0.0000
     20 C           3.2039    1.1970   11.5839 C.ar    1  UNL1        0.0000
     21 C           3.1294    0.2775   10.5411 C.ar    1  UNL1        0.0000
     22 H           3.3206    0.6060    9.5292 H       1  UNL1        0.0000
     23 C           2.7845   -1.0388   10.7895 C.ar    1  UNL1        0.0000
     24 H           2.7289   -1.7430    9.9717 H       1  UNL1        0.0000
     25 C           2.5048   -1.4538   12.0807 C.ar    1  UNL1        0.0000
     26 H           2.2361   -2.4821   12.2729 H       1  UNL1        0.0000
     27 C           2.5629   -0.5433   13.1225 C.ar    1  UNL1        0.0000
     28 H           2.3373   -0.8610   14.1304 H       1  UNL1        0.0000
     29 C           2.9086    0.7726   12.8766 C.ar    1  UNL1        0.0000
     30 H           2.9545    1.4870   13.6860 H       1  UNL1        0.0000
     31 C           0.3850    2.6011   11.2145 C.3     1  UNL1        0.0000
     32 H           1.0041    1.7789   10.8513 H       1  UNL1        0.0000
     33 C          -0.4577    2.1202   12.3938 C.3     1  UNL1        0.0000
     34 H           0.1823    1.7071   13.1701 H       1  UNL1        0.0000
     35 H          -1.1539    1.3491   12.0713 H       1  UNL1        0.0000
     36 H          -1.0124    2.9583   12.8057 H       1  UNL1        0.0000
     37 C          -0.5108    3.0891   10.0724 C.3     1  UNL1        0.0000
     38 H          -1.1252    3.9141   10.4216 H       1  UNL1        0.0000
     39 H          -1.1532    2.2824    9.7258 H       1  UNL1        0.0000
     40 H           0.0937    3.4410    9.2385 H       1  UNL1        0.0000
     41 C           0.2970    7.6495   12.6152 C.3     1  UNL1        0.0000
     42 H          -0.5327    7.5176   11.9322 H       1  UNL1        0.0000
     43 H           0.7489    8.6165   12.4358 H       1  UNL1        0.0000
     44 H          -0.1068    7.6492   13.6207 H       1  UNL1        0.0000
     45 C           2.5202    6.0904   14.1213 C.3     1  UNL1        0.0000
     46 H           1.8827    5.6480   14.8798 H       1  UNL1        0.0000
     47 H           2.8515    7.0520   14.5002 H       1  UNL1        0.0000
     48 H           3.3904    5.4481   14.0102 H       1  UNL1        0.0000
     49 C           2.2596    6.3092    9.6969 C.ar    1  UNL1        0.0000
     50 C           1.2781    7.2520    9.4034 C.ar    1  UNL1        0.0000
     51 H           0.9850    7.9560   10.1613 H       1  UNL1        0.0000
     52 C           0.6923    7.3076    8.1522 C.ar    1  UNL1        0.0000
     53 H          -0.0690    8.0477    7.9513 H       1  UNL1        0.0000
     54 C           1.0691    6.4186    7.1598 C.ar    1  UNL1        0.0000
     55 H           0.6075    6.4576    6.1840 H       1  UNL1        0.0000
     56 C           2.0423    5.4754    7.4363 C.ar    1  UNL1        0.0000
     57 H           2.3473    4.7730    6.6727 H       1  UNL1        0.0000
     58 C           2.6288    5.4208    8.6897 C.ar    1  UNL1        0.0000
     59 H           3.3714    4.6578    8.8873 H       1  UNL1        0.0000
     60 C           3.4606    9.3969    9.9814 C.3     1  UNL1        0.0000
     61 H           2.7410   10.2130    9.9150 H       1  UNL1        0.0000
     62 H           3.3132    8.7203    9.1442 H       1  UNL1        0.0000
     63 H           4.4780    9.8116    9.9191 H       1  UNL1        0.0000
     64 C           3.5527    9.5445   12.3512 C.3     1  UNL1        0.0000
     65 H           4.6101    9.8531   12.3688 H       1  UNL1        0.0000
     66 H           3.3147    9.0348   13.2823 H       1  UNL1        0.0000
     67 H           2.9387   10.4429   12.2833 H       1  UNL1        0.0000
     68 N           4.7697    4.5020   11.0598 N.ar    1  UNL1        0.0000
     69 N           0.6737    4.7939   12.1231 N.2     1  UNL1        0.0000
     70 N           3.2340    8.6859   11.2281 N.3     1  UNL1        0.0000
     71 O           4.9644    7.3190   10.3935 O.3     1  UNL1        0.0000
@<TRIPOS>BOND
     1    55    54    1
     2    57    56    1
     3    54    56   ar
     4    54    52   ar
     5    56    58   ar
     6    53    52    1
     7    52    50   ar
     8    58    59    1
     9    58    49   ar
    10    15    12    1
    11    62    60    1
    12    40    37    1
    13    50    49   ar
    14    50    51    1
    15    22    21    1
    16    49     6    1
    17    39    37    1
    18    14    12    1
    19    61    60    1
    20    63    60    1
    21    12    13    1
    22    12    10    1
    23    24    23    1
    24    60    70    1
    25    37    38    1
    26    37    31    1
    27    71     8    1
    28    21    23   ar
    29    21    20   ar
    30    23    25   ar
    31    32    31    1
    32    11    10    1
    33    68     2   ar
    34    68     7   ar
    35     6     7    1
    36     6     8    1
    37     6     1    1
    38    10     2    1
    39    10    16    1
    40     2     3   ar
    41    31     5    1
    42    31    33    1
    43    70     8    1
    44    70    64    1
    45     7     4   ar
    46     8     9    1
    47     3     4   ar
    48     3    20    1
    49     4     5    1
    50    20    29   ar
    51     5    69    2
    52    42    41    1
    53    35    33    1
    54    25    26    1
    55    25    27   ar
    56    69     1    1
    57    67    64    1
    58    64    65    1
    59    64    66    1
    60    33    36    1
    61    33    34    1
    62    43    41    1
    63    16    18    1
    64    16    19    1
    65    16    17    1
    66     1    41    1
    67     1    45    1
    68    41    44    1
    69    29    27   ar
    70    29    30    1
    71    27    28    1
    72    48    45    1
    73    45    47    1
    74    45    46    1
