@<TRIPOS>MOLECULE
7,8
 51 52 0 0 0
SMALL
GASTEIGER

@<TRIPOS>ATOM
      1 SI         14.3768   10.4101    5.8223 Si      1  UNL1        0.0000
      2 F           8.1283    4.4796    1.1304 F       1  UNL1        0.0000
      3 F           5.8780    3.0309    1.5062 F       1  UNL1        0.0000
      4 F           3.9473    3.8945    3.2252 F       1  UNL1        0.0000
      5 F           4.2806    6.2599    4.5595 F       1  UNL1        0.0000
      6 F           6.5306    7.7493    4.1351 F       1  UNL1        0.0000
      7 O          10.6182    8.1837    3.5824 O.3     1  UNL1        0.0000
      8 N           8.5371    6.9071    2.5651 N.pl3   1  UNL1        0.0000
      9 C           9.1111    7.1416    1.4235 C.3     1  UNL1        0.0000
     10 H           8.6169    6.8205    0.5021 H       1  UNL1        0.0000
     11 C          10.3125    7.8706    1.2530 C.ar    1  UNL1        0.0000
     12 C          10.7822    8.1443   -0.0505 C.ar    1  UNL1        0.0000
     13 H          10.2192    7.7261   -0.8689 H       1  UNL1        0.0000
     14 C          11.8986    8.9138   -0.2830 C.ar    1  UNL1        0.0000
     15 C          12.5841    9.4285    0.8290 C.ar    1  UNL1        0.0000
     16 H          13.4637   10.0387    0.6916 H       1  UNL1        0.0000
     17 C          12.1720    9.1849    2.1239 C.ar    1  UNL1        0.0000
     18 C          11.0209    8.3880    2.3733 C.ar    1  UNL1        0.0000
     19 C          12.4121    9.2390   -1.6760 C.3     1  UNL1        0.0000
     20 C          11.5550    8.6098   -2.7771 C.3     1  UNL1        0.0000
     21 H          11.5481    7.5254   -2.6971 H       1  UNL1        0.0000
     22 H          11.9684    8.8707   -3.7488 H       1  UNL1        0.0000
     23 H          10.5334    8.9804   -2.7382 H       1  UNL1        0.0000
     24 C          13.8446    8.7061   -1.8176 C.3     1  UNL1        0.0000
     25 H          14.5155    9.1682   -1.0991 H       1  UNL1        0.0000
     26 H          14.2217    8.9143   -2.8163 H       1  UNL1        0.0000
     27 H          13.8633    7.6301   -1.6590 H       1  UNL1        0.0000
     28 C          12.3973   10.7626   -1.8644 C.3     1  UNL1        0.0000
     29 H          11.3904   11.1498   -1.7241 H       1  UNL1        0.0000
     30 H          12.7286   11.0164   -2.8687 H       1  UNL1        0.0000
     31 H          13.0536   11.2591   -1.1556 H       1  UNL1        0.0000
     32 C          12.8683    9.6717    3.2552 C.1     1  UNL1        0.0000
     33 C          13.4073   10.0360    4.2749 C.1     1  UNL1        0.0000
     34 C          15.9111    9.2795    5.7611 C.3     1  UNL1        0.0000
     35 H          15.6162    8.2347    5.7755 H       1  UNL1        0.0000
     36 H          16.5639    9.4507    6.6124 H       1  UNL1        0.0000
     37 H          16.4937    9.4451    4.8596 H       1  UNL1        0.0000
     38 C          14.8929   12.2452    5.7429 C.3     1  UNL1        0.0000
     39 H          15.4671   12.4573    4.8457 H       1  UNL1        0.0000
     40 H          15.5082   12.5126    6.5970 H       1  UNL1        0.0000
     41 H          14.0313   12.9054    5.7444 H       1  UNL1        0.0000
     42 C          13.3083   10.0302    7.3479 C.3     1  UNL1        0.0000
     43 H          12.6952   10.8770    7.6396 H       1  UNL1        0.0000
     44 H          13.9282    9.7734    8.2025 H       1  UNL1        0.0000
     45 H          12.6482    9.1867    7.1621 H       1  UNL1        0.0000
     46 C           7.3865    6.1553    2.6346 C.ar    1  UNL1        0.0000
     47 C           7.1860    4.9407    1.9578 C.ar    1  UNL1        0.0000
     48 C           6.0376    4.1830    2.1571 C.ar    1  UNL1        0.0000
     49 C           5.0481    4.6235    3.0324 C.ar    1  UNL1        0.0000
     50 C           5.2183    5.8289    3.7120 C.ar    1  UNL1        0.0000
     51 C           6.3676    6.5710    3.5023 C.ar    1  UNL1        0.0000
@<TRIPOS>BOND
     1    22    20    1
     2    30    28    1
     3    26    24    1
     4    20    23    1
     5    20    21    1
     6    20    19    1
     7    28    29    1
     8    28    19    1
     9    28    31    1
    10    24    19    1
    11    24    27    1
    12    24    25    1
    13    19    14    1
    14    13    12    1
    15    14    12   ar
    16    14    15   ar
    17    12    11   ar
    18    10     9    1
    19    16    15    1
    20    15    17   ar
    21     2    47    1
    22    11     9    1
    23    11    18   ar
    24     9     8    1
    25     3    48    1
    26    47    48   ar
    27    47    46   ar
    28    17    18   ar
    29    17    32    1
    30    48    49   ar
    31    18     7    1
    32     8    46    1
    33    46    51   ar
    34    49     4    1
    35    49    50   ar
    36    32    33    3
    37    51    50   ar
    38    51     6    1
    39    50     5    1
    40    33     1    1
    41    39    38    1
    42    37    34    1
    43    38    41    1
    44    38     1    1
    45    38    40    1
    46    34    35    1
    47    34     1    1
    48    34    36    1
    49     1    42    1
    50    45    42    1
    51    42    43    1
    52    42    44    1
