@<TRIPOS>MOLECULE
6,7
 49 50 0 0 0
SMALL
GASTEIGER

@<TRIPOS>ATOM
      1 F           8.4630    9.6638    2.8927 F       1  UNL1       -0.2003
      2 F           9.9009   11.7746    1.9141 F       1  UNL1       -0.1993
      3 F          11.3923   13.3053    3.6275 F       1  UNL1       -0.1993
      4 F          11.3950   12.7376    6.2889 F       1  UNL1       -0.1993
      5 F          10.0143   10.6043    7.2394 F       1  UNL1       -0.2003
      6 O           8.3781    6.2670    5.3931 O.3     1  UNL1       -0.2872
      7 N           8.6499    8.8782    5.4576 N.pl3   1  UNL1       -0.2345
      8 C           7.9073    8.7928    6.5174 C.3     1  UNL1        0.0956
      9 H           7.6223    9.7113    7.0389 H       1  UNL1        0.0591
     10 C           7.4025    7.5915    7.0721 C.ar    1  UNL1        0.0240
     11 C           6.5856    7.6760    8.2183 C.ar    1  UNL1       -0.0493
     12 H           6.3517    8.6609    8.5877 H       1  UNL1        0.0625
     13 C           6.1136    6.5494    8.8404 C.ar    1  UNL1       -0.0412
     14 C           6.5363    5.3059    8.3379 C.ar    1  UNL1       -0.0507
     15 H           6.2138    4.4243    8.8641 H       1  UNL1        0.0625
     16 C           7.3372    5.1485    7.2278 C.ar    1  UNL1        0.0053
     17 C           7.7324    6.3168    6.5199 C.ar    1  UNL1        0.1877
     18 C           5.1932    6.5815   10.0495 C.3     1  UNL1       -0.0127
     19 C           4.8194    8.0091   10.4562 C.3     1  UNL1       -0.0560
     20 H           5.6997    8.5757   10.7495 H       1  UNL1        0.0238
     21 H           4.1434    7.9771   11.3078 H       1  UNL1        0.0238
     22 H           4.3127    8.5259    9.6448 H       1  UNL1        0.0238
     23 C           5.8959    5.9110   11.2380 C.3     1  UNL1       -0.0560
     24 H           6.1125    4.8659   11.0368 H       1  UNL1        0.0238
     25 H           5.2627    5.9615   12.1208 H       1  UNL1        0.0238
     26 H           6.8331    6.4183   11.4552 H       1  UNL1        0.0238
     27 C           3.9014    5.8254    9.7085 C.3     1  UNL1       -0.0560
     28 H           3.4167    6.2793    8.8470 H       1  UNL1        0.0238
     29 H           3.2147    5.8626   10.5509 H       1  UNL1        0.0238
     30 H           4.0979    4.7823    9.4781 H       1  UNL1        0.0238
     31 C           7.8789    3.7865    6.8074 C.3     1  UNL1       -0.0090
     32 C           7.3428    2.6471    7.6812 C.3     1  UNL1       -0.0559
     33 H           7.6300    2.7776    8.7217 H       1  UNL1        0.0238
     34 H           7.7690    1.7077    7.3371 H       1  UNL1        0.0238
     35 H           6.2599    2.5687    7.6095 H       1  UNL1        0.0238
     36 C           7.5126    3.4726    5.3506 C.3     1  UNL1       -0.0559
     37 H           6.4337    3.5245    5.2136 H       1  UNL1        0.0238
     38 H           7.8439    2.4677    5.0998 H       1  UNL1        0.0238
     39 H           8.0012    4.1657    4.6675 H       1  UNL1        0.0238
     40 C           9.4072    3.8304    6.9595 C.3     1  UNL1       -0.0559
     41 H           9.8485    4.5903    6.3137 H       1  UNL1        0.0238
     42 H           9.8337    2.8678    6.6876 H       1  UNL1        0.0238
     43 H           9.6787    4.0553    7.9891 H       1  UNL1        0.0238
     44 C           9.2332   10.0654    5.0741 C.ar    1  UNL1        0.1247
     45 C           9.2082   10.4233    3.7208 C.ar    1  UNL1        0.1867
     46 C           9.9286   11.4937    3.2202 C.ar    1  UNL1        0.1983
     47 C          10.6879   12.2727    4.0911 C.ar    1  UNL1        0.1992
     48 C          10.6974   11.9711    5.4495 C.ar    1  UNL1        0.1983
     49 C           9.9754   10.8874    5.9343 C.ar    1  UNL1        0.1867
@<TRIPOS>BOND
     1     2    46    1
     2     1    45    1
     3    46    45   ar
     4    46    47   ar
     5     3    47    1
     6    45    44   ar
     7    47    48   ar
     8    39    36    1
     9    44     7    1
    10    44    49   ar
    11    38    36    1
    12    37    36    1
    13    36    31    1
    14     6    17    1
    15    48    49   ar
    16    48     4    1
    17     7     8    1
    18    49     5    1
    19    41    40    1
    20     8     9    1
    21     8    10    1
    22    17    10   ar
    23    17    16   ar
    24    42    40    1
    25    31    40    1
    26    31    16    1
    27    31    32    1
    28    40    43    1
    29    10    11   ar
    30    16    14   ar
    31    34    32    1
    32    35    32    1
    33    32    33    1
    34    11    12    1
    35    11    13   ar
    36    14    13   ar
    37    14    15    1
    38    13    18    1
    39    28    27    1
    40    30    27    1
    41    22    19    1
    42    27    18    1
    43    27    29    1
    44    18    19    1
    45    18    23    1
    46    19    20    1
    47    19    21    1
    48    24    23    1
    49    23    26    1
    50    23    25    1
