@<TRIPOS>MOLECULE
1,2
 49 51 0 0 0
SMALL
GASTEIGER

@<TRIPOS>ATOM
      1 O           8.1882   10.4351    6.5067 O.3     1  UNL1       -0.1940
      2 N           8.9787   12.2665    7.4613 N.pl3   1  UNL1       -0.2051
      3 C           9.4972   13.0325    8.5205 C.ar    1  UNL1        0.0583
      4 C           9.3389   10.0728    8.5569 C.ar    1  UNL1        0.0195
      5 C           8.9142   13.0332    9.8033 C.ar    1  UNL1       -0.0219
      6 C           8.8073   10.9658    7.4922 C.3     1  UNL1        0.2665
      7 C           8.5643    8.9806    9.0391 C.ar    1  UNL1       -0.0101
      8 C          10.5728   13.9013    8.2541 C.ar    1  UNL1       -0.0219
      9 C           7.6782   12.2343   10.1544 C.3     1  UNL1       -0.0197
     10 H           7.3862   11.6258    9.2957 H       1  UNL1        0.0344
     11 C          10.5505   14.6510   10.5449 C.ar    1  UNL1       -0.0611
     12 H          10.9697   15.2580   11.3336 H       1  UNL1        0.0618
     13 C          11.2045   13.9811    6.8819 C.3     1  UNL1       -0.0197
     14 H          10.5284   13.4949    6.1601 H       1  UNL1        0.0344
     15 C          11.0895   14.6850    9.2743 C.ar    1  UNL1       -0.0565
     16 H          11.9319   15.3298    9.0762 H       1  UNL1        0.0621
     17 C           6.5140   13.1763   10.4802 C.3     1  UNL1       -0.0586
     18 H           6.7354   13.7762   11.3597 H       1  UNL1        0.0235
     19 H           5.6134   12.5987   10.6764 H       1  UNL1        0.0235
     20 H           6.3166   13.8507    9.6506 H       1  UNL1        0.0235
     21 C          11.4146   15.4339    6.4416 C.3     1  UNL1       -0.0586
     22 H          10.5322   16.0316    6.6555 H       1  UNL1        0.0235
     23 H          11.6076   15.4783    5.3725 H       1  UNL1        0.0235
     24 H          12.2635   15.8813    6.9544 H       1  UNL1        0.0235
     25 C          10.6101   10.2785    9.0377 C.ar    1  UNL1       -0.0533
     26 H          11.1917   11.1124    8.6763 H       1  UNL1        0.0622
     27 C           7.2369    8.7390    8.6270 C.ar    1  UNL1       -0.0536
     28 H           6.7925    9.3889    7.8890 H       1  UNL1        0.0624
     29 C           9.1383    8.1193   10.0130 C.ar    1  UNL1       -0.0175
     30 C           7.9289   11.2992   11.3414 C.3     1  UNL1       -0.0586
     31 H           8.8464   10.7338   11.2051 H       1  UNL1        0.0235
     32 H           7.1043   10.5969   11.4445 H       1  UNL1        0.0235
     33 H           8.0118   11.8639   12.2670 H       1  UNL1        0.0235
     34 C           9.4600   13.8423   10.7902 C.ar    1  UNL1       -0.0565
     35 H           9.0229   13.8363   11.7770 H       1  UNL1        0.0621
     36 C          11.1718    9.4172    9.9886 C.ar    1  UNL1       -0.0608
     37 H          12.1767    9.6025   10.3379 H       1  UNL1        0.0618
     38 C           8.3743    7.0466   10.5187 C.ar    1  UNL1       -0.0540
     39 H           8.8227    6.3979   11.2579 H       1  UNL1        0.0624
     40 C          10.4535    8.3568   10.4641 C.ar    1  UNL1       -0.0540
     41 H          10.8791    7.6871   11.1979 H       1  UNL1        0.0624
     42 C           6.5226    7.6918    9.1392 C.ar    1  UNL1       -0.0612
     43 H           5.5074    7.5190    8.8129 H       1  UNL1        0.0618
     44 C          12.5422   13.2356    6.8800 C.3     1  UNL1       -0.0586
     45 H          13.2125   13.6585    7.6270 H       1  UNL1        0.0235
     46 H          13.0219   13.3058    5.9059 H       1  UNL1        0.0235
     47 H          12.3897   12.1849    7.1107 H       1  UNL1        0.0235
     48 C           7.0941    6.8353   10.0918 C.ar    1  UNL1       -0.0612
     49 H           6.5145    6.0132   10.4856 H       1  UNL1        0.0618
@<TRIPOS>BOND
     1    23    21    1
     2    46    44    1
     3    14    13    1
     4    21    22    1
     5    21    13    1
     6    21    24    1
     7     1     6    1
     8    44    13    1
     9    44    47    1
    10    44    45    1
    11    13     8    1
    12     2     6    1
    13     2     3    1
    14     6     4    1
    15    28    27    1
    16     8     3   ar
    17     8    15   ar
    18     3     5   ar
    19     4    25   ar
    20     4     7   ar
    21    27     7   ar
    22    27    42   ar
    23    26    25    1
    24    43    42    1
    25    25    36   ar
    26     7    29   ar
    27    16    15    1
    28    42    48   ar
    29    15    11   ar
    30    10     9    1
    31    20    17    1
    32     5     9    1
    33     5    34   ar
    34    36    37    1
    35    36    40   ar
    36    29    40   ar
    37    29    38   ar
    38    48    49    1
    39    48    38   ar
    40     9    17    1
    41     9    30    1
    42    40    41    1
    43    17    19    1
    44    17    18    1
    45    38    39    1
    46    11    34   ar
    47    11    12    1
    48    34    35    1
    49    31    30    1
    50    30    32    1
    51    30    33    1
