@<TRIPOS>MOLECULE
1,2
 49 51 0 0 0
SMALL
GASTEIGER

@<TRIPOS>ATOM
      1 O           9.7047   13.0371    3.7822 O.3     1  UNL1       -0.1940
      2 N           9.6518   10.8413    3.9714 N.pl3   1  UNL1       -0.2051
      3 C          11.0827   11.8295    2.2266 C.ar    1  UNL1        0.0195
      4 C          13.0669   12.5860    1.0081 C.ar    1  UNL1       -0.0175
      5 C          11.4190    9.1416    3.9927 C.ar    1  UNL1       -0.0219
      6 C          10.0942    9.5272    3.7288 C.ar    1  UNL1        0.0583
      7 C          12.1928   12.7113    2.1216 C.ar    1  UNL1       -0.0101
      8 C           9.1697    8.5733    3.2727 C.ar    1  UNL1       -0.0219
      9 C          10.1379   11.9018    3.3756 C.3     1  UNL1        0.2665
     10 C          11.8101    7.8408    3.7091 C.ar    1  UNL1       -0.0565
     11 H          12.8307    7.5421    3.8952 H       1  UNL1        0.0621
     12 C          10.8555   10.9032    1.2357 C.ar    1  UNL1       -0.0533
     13 H          10.0037   10.2453    1.3011 H       1  UNL1        0.0622
     14 C           9.6019    7.2824    3.0091 C.ar    1  UNL1       -0.0565
     15 H           8.8989    6.5479    2.6459 H       1  UNL1        0.0621
     16 C          12.4797   13.6906    3.0934 C.ar    1  UNL1       -0.0536
     17 H          11.7960   13.7981    3.9192 H       1  UNL1        0.0624
     18 C          10.9207    6.9180    3.1970 C.ar    1  UNL1       -0.0611
     19 H          11.2477    5.9144    2.9678 H       1  UNL1        0.0618
     20 C          11.7085   10.7995    0.1303 C.ar    1  UNL1       -0.0608
     21 H          11.4969   10.0615   -0.6290 H       1  UNL1        0.0618
     22 C          14.1908   13.4345    0.9191 C.ar    1  UNL1       -0.0540
     23 H          14.8504   13.3282    0.0695 H       1  UNL1        0.0624
     24 C          12.4066   10.0656    4.6673 C.3     1  UNL1       -0.0197
     25 H          11.9597   11.0601    4.7601 H       1  UNL1        0.0344
     26 C           7.7079    8.9145    3.0878 C.3     1  UNL1       -0.0197
     27 H           7.5523    9.9821    3.3147 H       1  UNL1        0.0344
     28 C          13.5769   14.4976    2.9788 C.ar    1  UNL1       -0.0612
     29 H          13.7855   15.2439    3.7323 H       1  UNL1        0.0618
     30 C          14.4447   14.3670    1.8844 C.ar    1  UNL1       -0.0612
     31 H          15.3097   15.0099    1.8102 H       1  UNL1        0.0618
     32 C          12.7979   11.6167    0.0203 C.ar    1  UNL1       -0.0540
     33 H          13.4680   11.5344   -0.8236 H       1  UNL1        0.0624
     34 C          13.7116   10.1963    3.8790 C.3     1  UNL1       -0.0586
     35 H          14.2828    9.2721    3.9183 H       1  UNL1        0.0235
     36 H          14.3245   10.9916    4.2988 H       1  UNL1        0.0235
     37 H          13.5112   10.4308    2.8368 H       1  UNL1        0.0235
     38 C           6.8711    8.1105    4.0861 C.3     1  UNL1       -0.0586
     39 H           7.0175    7.0412    3.9477 H       1  UNL1        0.0235
     40 H           5.8159    8.3350    3.9535 H       1  UNL1        0.0235
     41 H           7.1658    8.3737    5.1002 H       1  UNL1        0.0235
     42 C          12.6850    9.5371    6.0789 C.3     1  UNL1       -0.0586
     43 H          11.7630    9.5042    6.6569 H       1  UNL1        0.0235
     44 H          13.4029   10.1754    6.5903 H       1  UNL1        0.0235
     45 H          13.0946    8.5304    6.0379 H       1  UNL1        0.0235
     46 C           7.2487    8.6474    1.6522 C.3     1  UNL1       -0.0586
     47 H           7.8695    9.1840    0.9368 H       1  UNL1        0.0235
     48 H           6.2207    8.9749    1.5193 H       1  UNL1        0.0235
     49 H           7.3021    7.5868    1.4172 H       1  UNL1        0.0235
@<TRIPOS>BOND
     1    33    32    1
     2    21    20    1
     3    32    20   ar
     4    32     4   ar
     5    23    22    1
     6    20    12   ar
     7    22     4   ar
     8    22    30   ar
     9    47    46    1
    10     4     7   ar
    11    12    13    1
    12    12     3   ar
    13    49    46    1
    14    48    46    1
    15    46    26    1
    16    31    30    1
    17    30    28   ar
    18     7     3   ar
    19     7    16   ar
    20     3     9    1
    21    15    14    1
    22    37    34    1
    23    19    18    1
    24    28    16   ar
    25    28    29    1
    26    14    18   ar
    27    14     8   ar
    28    26     8    1
    29    26    27    1
    30    26    38    1
    31    16    17    1
    32    18    10   ar
    33     8     6   ar
    34     9     1    1
    35     9     2    1
    36    10    11    1
    37    10     5   ar
    38     6     2    1
    39     6     5   ar
    40    34    35    1
    41    34    36    1
    42    34    24    1
    43    39    38    1
    44    40    38    1
    45     5    24    1
    46    38    41    1
    47    24    25    1
    48    24    42    1
    49    45    42    1
    50    42    44    1
    51    42    43    1
