@<TRIPOS>MOLECULE
1,2
 43 44 0 0 0
SMALL
GASTEIGER

@<TRIPOS>ATOM
      1 N          10.5497    1.0953    2.4409 N.pl3   1  UNL1       -0.2398
      2 O           9.0117    0.2975    4.7149 O.3     1  UNL1       -0.2876
      3 C           9.7981    1.0822    5.3561 C.ar    1  UNL1        0.1840
      4 C           9.5813    1.3023    6.7441 C.ar    1  UNL1       -0.0146
      5 H           8.7327    0.8012    7.1864 H       1  UNL1        0.0656
      6 C          10.3972    2.1063    7.4899 C.ar    1  UNL1       -0.0581
      7 H          10.1996    2.2452    8.5432 H       1  UNL1        0.0619
      8 C          11.4901    2.7533    6.9019 C.ar    1  UNL1       -0.0612
      9 H          12.1333    3.3814    7.4985 H       1  UNL1        0.0618
     10 C          11.7240    2.5871    5.5640 C.ar    1  UNL1       -0.0530
     11 H          12.5567    3.0961    5.0968 H       1  UNL1        0.0622
     12 C          10.9027    1.7755    4.7544 C.ar    1  UNL1        0.0234
     13 C          11.1816    1.7549    3.3577 C.3     1  UNL1        0.0954
     14 H          12.0201    2.3944    3.0524 H       1  UNL1        0.0591
     15 C          10.8860    1.3663    1.0917 C.ar    1  UNL1        0.0554
     16 C          11.3564    0.3217    0.2793 C.ar    1  UNL1       -0.0220
     17 C          11.7089    0.5934   -1.0342 C.ar    1  UNL1       -0.0565
     18 H          12.0935   -0.1984   -1.6580 H       1  UNL1        0.0621
     19 C          11.5818    1.8658   -1.5575 C.ar    1  UNL1       -0.0611
     20 H          11.8663    2.0648   -2.5799 H       1  UNL1        0.0618
     21 C          11.0760    2.8781   -0.7681 C.ar    1  UNL1       -0.0565
     22 H          10.9587    3.8649   -1.1885 H       1  UNL1        0.0621
     23 C          10.7214    2.6556    0.5562 C.ar    1  UNL1       -0.0220
     24 C          10.1146    3.7947    1.3457 C.3     1  UNL1       -0.0197
     25 H           9.7880    3.4196    2.3205 H       1  UNL1        0.0344
     26 C           8.8807    4.3469    0.6253 C.3     1  UNL1       -0.0586
     27 H           9.1513    4.8245   -0.3127 H       1  UNL1        0.0235
     28 H           8.3850    5.0875    1.2494 H       1  UNL1        0.0235
     29 H           8.1777    3.5460    0.4083 H       1  UNL1        0.0235
     30 C          11.1359    4.9120    1.5779 C.3     1  UNL1       -0.0586
     31 H          12.0065    4.5404    2.1136 H       1  UNL1        0.0235
     32 H          10.6901    5.7121    2.1652 H       1  UNL1        0.0235
     33 H          11.4726    5.3285    0.6317 H       1  UNL1        0.0235
     34 C          11.5210   -1.0816    0.8210 C.3     1  UNL1       -0.0197
     35 H          11.0025   -1.1612    1.7946 H       1  UNL1        0.0344
     36 C          13.0073   -1.3785    1.0438 C.3     1  UNL1       -0.0586
     37 H          13.5535   -1.3183    0.1046 H       1  UNL1        0.0235
     38 H          13.1387   -2.3759    1.4562 H       1  UNL1        0.0235
     39 H          13.4405   -0.6602    1.7376 H       1  UNL1        0.0235
     40 C          10.8747   -2.1149   -0.1053 C.3     1  UNL1       -0.0586
     41 H           9.8463   -1.8247   -0.3149 H       1  UNL1        0.0235
     42 H          10.8632   -3.0855    0.3827 H       1  UNL1        0.0235
     43 H          11.4165   -2.2064   -1.0443 H       1  UNL1        0.0235
@<TRIPOS>BOND
     1    20    19    1
     2    18    17    1
     3    19    17   ar
     4    19    21   ar
     5    22    21    1
     6    43    40    1
     7    17    16   ar
     8    21    23   ar
     9    41    40    1
    10    27    26    1
    11    40    42    1
    12    40    34    1
    13    37    36    1
    14    16    34    1
    15    16    15   ar
    16    29    26    1
    17    23    15   ar
    18    23    24    1
    19    26    28    1
    20    26    24    1
    21    33    30    1
    22    34    36    1
    23    34    35    1
    24    36    38    1
    25    36    39    1
    26    15     1    1
    27    24    30    1
    28    24    25    1
    29    30    31    1
    30    30    32    1
    31     1    13    1
    32    14    13    1
    33    13    12    1
    34     2     3    1
    35    12     3   ar
    36    12    10   ar
    37    11    10    1
    38     3     4   ar
    39    10     8   ar
    40     4     5    1
    41     4     6   ar
    42     8     6   ar
    43     8     9    1
    44     6     7    1
