@<TRIPOS>MOLECULE
1,2
 43 44 0 0 0
SMALL
GASTEIGER

@<TRIPOS>ATOM
      1 N           6.6744    1.0358    2.9440 N.pl3   1  UNL1       -0.2398
      2 O           8.2480    0.1625    0.7218 O.3     1  UNL1       -0.2876
      3 C           7.4492    0.8964    0.0376 C.ar    1  UNL1        0.1840
      4 C           7.6713    1.0529   -1.3584 C.ar    1  UNL1       -0.0146
      5 H           8.5342    0.5504   -1.7702 H       1  UNL1        0.0656
      6 C           6.8436    1.8008   -2.1480 C.ar    1  UNL1       -0.0581
      7 H           7.0464    1.8927   -3.2054 H       1  UNL1        0.0619
      8 C           5.7319    2.4510   -1.5998 C.ar    1  UNL1       -0.0612
      9 H           5.0800    3.0351   -2.2305 H       1  UNL1        0.0618
     10 C           5.4908    2.3443   -0.2571 C.ar    1  UNL1       -0.0530
     11 H           4.6432    2.8562    0.1789 H       1  UNL1        0.0622
     12 C           6.3238    1.5920    0.5968 C.ar    1  UNL1        0.0234
     13 C           6.0332    1.6320    1.9906 C.3     1  UNL1        0.0954
     14 H           5.1748    2.2620    2.2577 H       1  UNL1        0.0591
     15 C           6.3187    1.3663    4.2753 C.ar    1  UNL1        0.0554
     16 C           6.4470    2.6849    4.7455 C.ar    1  UNL1       -0.0220
     17 C           6.0794    2.9645    6.0555 C.ar    1  UNL1       -0.0565
     18 H           6.1695    3.9740    6.4260 H       1  UNL1        0.0621
     19 C           5.5957    1.9807    6.8932 C.ar    1  UNL1       -0.0611
     20 H           5.3026    2.2234    7.9037 H       1  UNL1        0.0618
     21 C           5.5016    0.6814    6.4334 C.ar    1  UNL1       -0.0565
     22 H           5.1341   -0.0880    7.0947 H       1  UNL1        0.0621
     23 C           5.8655    0.3535    5.1358 C.ar    1  UNL1       -0.0220
     24 C           5.7428   -1.0812    4.6709 C.3     1  UNL1       -0.0197
     25 H           6.2014   -1.1841    3.6711 H       1  UNL1        0.0344
     26 C           4.2662   -1.4730    4.5597 C.3     1  UNL1       -0.0586
     27 H           3.7739   -1.3965    5.5268 H       1  UNL1        0.0235
     28 H           4.1712   -2.4969    4.2062 H       1  UNL1        0.0235
     29 H           3.7490   -0.8185    3.8605 H       1  UNL1        0.0235
     30 C           6.5036   -2.0229    5.6090 C.3     1  UNL1       -0.0586
     31 H           7.5306   -1.6763    5.7209 H       1  UNL1        0.0235
     32 H           6.5235   -3.0238    5.1872 H       1  UNL1        0.0235
     33 H           6.0368   -2.0686    6.5908 H       1  UNL1        0.0235
     34 C           7.0270    3.7991    3.9021 C.3     1  UNL1       -0.0197
     35 H           7.3696    3.3847    2.9489 H       1  UNL1        0.0344
     36 C           5.9757    4.8736    3.6093 C.3     1  UNL1       -0.0586
     37 H           5.1185    4.4506    3.0903 H       1  UNL1        0.0235
     38 H           6.4015    5.6551    2.9836 H       1  UNL1        0.0235
     39 H           5.6225    5.3280    4.5319 H       1  UNL1        0.0235
     40 C           8.2407    4.4222    4.5983 C.3     1  UNL1       -0.0586
     41 H           7.9522    4.9370    5.5110 H       1  UNL1        0.0235
     42 H           8.7173    5.1456    3.9402 H       1  UNL1        0.0235
     43 H           8.9659    3.6539    4.8565 H       1  UNL1        0.0235
@<TRIPOS>BOND
     1     7     6    1
     2     9     8    1
     3     6     8   ar
     4     6     4   ar
     5     5     4    1
     6     8    10   ar
     7     4     3   ar
     8    10    11    1
     9    10    12   ar
    10     3    12   ar
    11     3     2    1
    12    12    13    1
    13    13    14    1
    14    13     1    1
    15     1    15    1
    16    35    34    1
    17    38    36    1
    18    37    36    1
    19    36    34    1
    20    36    39    1
    21    25    24    1
    22    29    26    1
    23    34    40    1
    24    34    16    1
    25    42    40    1
    26    28    26    1
    27    15    16   ar
    28    15    23   ar
    29    26    24    1
    30    26    27    1
    31    40    43    1
    32    40    41    1
    33    24    23    1
    34    24    30    1
    35    16    17   ar
    36    23    21   ar
    37    32    30    1
    38    30    31    1
    39    30    33    1
    40    17    18    1
    41    17    19   ar
    42    21    19   ar
    43    21    22    1
    44    19    20    1
