@<TRIPOS>MOLECULE
1,2
 66 71 0 0 0
SMALL
GASTEIGER

@<TRIPOS>ATOM
      1 N           3.3446   12.3705    4.4072 N.pl3   1  UNL1       -0.2397
      2 O           3.1093   10.6107    6.3973 O.3     1  UNL1       -0.2872
      3 O           0.9313   12.6928    3.0702 O.3     1  UNL1       -0.4945
      4 C           2.3319   11.4441    7.0293 C.ar    1  UNL1        0.1877
      5 C           2.0963   12.7267    6.4608 C.ar    1  UNL1        0.0240
      6 C           1.2721   13.6566    7.1096 C.ar    1  UNL1       -0.0501
      7 H           1.1200   14.6250    6.6526 H       1  UNL1        0.0625
      8 C           0.6593   13.3472    8.2979 C.ar    1  UNL1       -0.0496
      9 C           0.9053   12.0901    8.8587 C.ar    1  UNL1       -0.0515
     10 H           0.4210   11.8812    9.7983 H       1  UNL1        0.0624
     11 C           1.7228   11.1381    8.2826 C.ar    1  UNL1        0.0060
     12 C           2.6917   13.1203    5.2194 C.3     1  UNL1        0.0954
     13 H           2.5332   14.1732    4.9512 H       1  UNL1        0.0591
     14 C          -0.2244   14.3271    9.0093 C.3     1  UNL1       -0.0397
     15 H          -0.5933   15.0862    8.3243 H       1  UNL1        0.0278
     16 H           0.3319   14.8268    9.8028 H       1  UNL1        0.0278
     17 H          -1.0732   13.8216    9.4645 H       1  UNL1        0.0278
     18 C           3.8707   13.0106    3.2696 C.ar    1  UNL1        0.0563
     19 C           3.5082   12.6168    1.9753 C.ar    1  UNL1        0.0082
     20 C           4.1184   13.2439    0.8939 C.ar    1  UNL1       -0.0521
     21 H           3.8385   12.9401   -0.1043 H       1  UNL1        0.0624
     22 C           5.0513   14.2479    1.0728 C.ar    1  UNL1       -0.0611
     23 H           5.5152   14.7135    0.2165 H       1  UNL1        0.0618
     24 C           5.3817   14.6560    2.3532 C.ar    1  UNL1       -0.0599
     25 H           6.1022   15.4453    2.5081 H       1  UNL1        0.0618
     26 C           4.7862   14.0480    3.4411 C.ar    1  UNL1       -0.0385
     27 H           5.0519   14.3511    4.4458 H       1  UNL1        0.0637
     28 C           2.5020   11.5720    1.7067 C.ar    1  UNL1        0.0256
     29 C           1.2057   11.6319    2.2496 C.ar    1  UNL1        0.1278
     30 C           0.2726   10.6618    1.9009 C.ar    1  UNL1       -0.0193
     31 H          -0.7279   10.6921    2.3024 H       1  UNL1        0.0654
     32 C           0.6131    9.6424    1.0270 C.ar    1  UNL1       -0.0583
     33 H          -0.1292    8.9024    0.7677 H       1  UNL1        0.0619
     34 C           1.8869    9.5734    0.4943 C.ar    1  UNL1       -0.0610
     35 H           2.1538    8.7747   -0.1804 H       1  UNL1        0.0618
     36 C           2.8189   10.5391    0.8316 C.ar    1  UNL1       -0.0505
     37 H           3.8221   10.4914    0.4361 H       1  UNL1        0.0625
     38 C          -0.3157   12.7334    3.7176 C.3     1  UNL1        0.0788
     39 H          -0.2954   13.6228    4.3457 H       1  UNL1        0.0660
     40 H          -0.4666   11.8526    4.3512 H       1  UNL1        0.0660
     41 H          -1.1403   12.8190    3.0023 H       1  UNL1        0.0660
     42 C           1.9899    9.8048    8.9706 C.3     1  UNL1        0.0002
     43 C           1.2349    9.6712   10.3017 C.3     1  UNL1       -0.0404
     44 H           1.5315   10.4747   10.9796 H       1  UNL1        0.0276
     45 H           0.1582    9.7381   10.1284 H       1  UNL1        0.0276
     46 C           1.5669    8.6412    8.0592 C.3     1  UNL1       -0.0404
     47 H           0.4969    8.7201    7.8454 H       1  UNL1        0.0276
     48 H           2.1157    8.6967    7.1142 H       1  UNL1        0.0276
     49 C           3.4937    9.6847    9.2669 C.3     1  UNL1       -0.0404
     50 H           4.0583    9.7805    8.3373 H       1  UNL1        0.0276
     51 H           3.7949   10.4979    9.9338 H       1  UNL1        0.0276
     52 C           1.5444    8.3310   10.9683 C.3     1  UNL1       -0.0397
     53 H           0.9936    8.2708   11.9147 H       1  UNL1        0.0301
     54 C           1.8681    7.3030    8.7327 C.3     1  UNL1       -0.0397
     55 H           1.5579    6.4906    8.0655 H       1  UNL1        0.0301
     56 C           3.7986    8.3381    9.9226 C.3     1  UNL1       -0.0397
     57 H           4.8763    8.2683   10.1086 H       1  UNL1        0.0301
     58 C           1.1063    7.1932   10.0509 C.3     1  UNL1       -0.0473
     59 H           0.0304    7.2535    9.8695 H       1  UNL1        0.0271
     60 H           1.3124    6.2302   10.5235 H       1  UNL1        0.0271
     61 C           3.3673    7.1979    9.0022 C.3     1  UNL1       -0.0473
     62 H           3.9133    7.2501    8.0589 H       1  UNL1        0.0271
     63 H           3.5954    6.2375    9.4704 H       1  UNL1        0.0271
     64 C           3.0424    8.2284   11.2450 C.3     1  UNL1       -0.0473
     65 H           3.2679    7.2752   11.7284 H       1  UNL1        0.0271
     66 H           3.3516    9.0282   11.9220 H       1  UNL1        0.0271
@<TRIPOS>BOND
     1    35    34    1
     2    21    20    1
     3    23    22    1
     4    37    36    1
     5    34    36   ar
     6    34    32   ar
     7    33    32    1
     8    36    28   ar
     9    20    22   ar
    10    20    19   ar
    11    32    30   ar
    12    22    24   ar
    13    28    19    1
    14    28    29   ar
    15    30    29   ar
    16    30    31    1
    17    19    18   ar
    18    29     3    1
    19    24    25    1
    20    24    26   ar
    21    41    38    1
    22     3    38    1
    23    18    26   ar
    24    18     1    1
    25    26    27    1
    26    38    39    1
    27    38    40    1
    28     1    12    1
    29    13    12    1
    30    12     5    1
    31     2     4    1
    32     5     4   ar
    33     5     6   ar
    34     7     6    1
    35     4    11   ar
    36     6     8   ar
    37    48    46    1
    38    47    46    1
    39    62    61    1
    40    46    54    1
    41    46    42    1
    42    55    54    1
    43    11     9   ar
    44    11    42    1
    45     8     9   ar
    46     8    14    1
    47    15    14    1
    48    50    49    1
    49    54    61    1
    50    54    58    1
    51     9    10    1
    52    42    49    1
    53    42    43    1
    54    61    63    1
    55    61    56    1
    56    14    17    1
    57    14    16    1
    58    49    56    1
    59    49    51    1
    60    59    58    1
    61    56    57    1
    62    56    64    1
    63    58    60    1
    64    58    52    1
    65    45    43    1
    66    43    52    1
    67    43    44    1
    68    52    64    1
    69    52    53    1
    70    64    65    1
    71    64    66    1
