@<TRIPOS>MOLECULE
1,2
 66 71 0 0 0
SMALL
GASTEIGER

@<TRIPOS>ATOM
      1 N           3.2806    0.2048    4.2062 N.pl3   1  UNL1       -0.2397
      2 O           3.1769   -1.7396    6.0819 O.3     1  UNL1       -0.2872
      3 O           0.7423    0.4555    3.1776 O.3     1  UNL1       -0.4945
      4 C           2.3721   -0.9932    6.7679 C.ar    1  UNL1        0.1877
      5 C           2.1466    0.3513    6.3560 C.ar    1  UNL1        0.0240
      6 C           1.3330    1.2072    7.1158 C.ar    1  UNL1       -0.0501
      7 H           1.2006    2.2283    6.7832 H       1  UNL1        0.0625
      8 C           0.7017    0.7606    8.2466 C.ar    1  UNL1       -0.0496
      9 C           0.8987   -0.5722    8.6317 C.ar    1  UNL1       -0.0515
     10 H           0.3824   -0.8942    9.5214 H       1  UNL1        0.0624
     11 C           1.7057   -1.4549    7.9484 C.ar    1  UNL1        0.0060
     12 C           2.6951    0.8665    5.1436 C.3     1  UNL1        0.0954
     13 H           2.5216    1.9411    4.9932 H       1  UNL1        0.0591
     14 C          -0.1844    1.6474    9.0694 C.3     1  UNL1       -0.0397
     15 H           0.1915    1.7208   10.0893 H       1  UNL1        0.0278
     16 H          -1.1941    1.2405    9.1159 H       1  UNL1        0.0278
     17 H          -0.2329    2.6474    8.6459 H       1  UNL1        0.0278
     18 C           3.6792    0.9839    3.1044 C.ar    1  UNL1        0.0563
     19 C           3.1837    0.7502    1.8138 C.ar    1  UNL1        0.0082
     20 C           3.6400    1.5508    0.7696 C.ar    1  UNL1       -0.0521
     21 H           3.2474    1.3799   -0.2225 H       1  UNL1        0.0624
     22 C           4.5567    2.5634    0.9790 C.ar    1  UNL1       -0.0611
     23 H           4.8932    3.1685    0.1507 H       1  UNL1        0.0618
     24 C           5.0362    2.7982    2.2564 C.ar    1  UNL1       -0.0599
     25 H           5.7526    3.5861    2.4354 H       1  UNL1        0.0618
     26 C           4.5905    2.0213    3.3073 C.ar    1  UNL1       -0.0385
     27 H           4.9709    2.1902    4.3069 H       1  UNL1        0.0637
     28 C           2.2155   -0.3194    1.5050 C.ar    1  UNL1        0.0256
     29 C           1.0065   -0.4689    2.2087 C.ar    1  UNL1        0.1278
     30 C           0.1335   -1.4928    1.8564 C.ar    1  UNL1       -0.0193
     31 H          -0.7928   -1.6307    2.3912 H       1  UNL1        0.0654
     32 C           0.4344   -2.3473    0.8093 C.ar    1  UNL1       -0.0583
     33 H          -0.2580   -3.1353    0.5545 H       1  UNL1        0.0619
     34 C           1.6073   -2.1906    0.0952 C.ar    1  UNL1       -0.0610
     35 H           1.8421   -2.8512   -0.7251 H       1  UNL1        0.0618
     36 C           2.4857   -1.1814    0.4471 C.ar    1  UNL1       -0.0505
     37 H           3.4136   -1.0638   -0.0936 H       1  UNL1        0.0625
     38 C          -0.4061    0.2887    3.9714 C.3     1  UNL1        0.0788
     39 H          -1.3221    0.3539    3.3749 H       1  UNL1        0.0660
     40 H          -0.3897    1.1045    4.6924 H       1  UNL1        0.0660
     41 H          -0.3836   -0.6634    4.5124 H       1  UNL1        0.0660
     42 C           1.9088   -2.8849    8.4354 C.3     1  UNL1        0.0002
     43 C           1.0763   -3.2069    9.6855 C.3     1  UNL1       -0.0404
     44 H           1.3496   -2.5308   10.4988 H       1  UNL1        0.0276
     45 H           0.0127   -3.0805    9.4688 H       1  UNL1        0.0276
     46 C           1.5152   -3.8802    7.3312 C.3     1  UNL1       -0.0404
     47 H           0.4585   -3.7432    7.0821 H       1  UNL1        0.0276
     48 H           2.1111   -3.6907    6.4332 H       1  UNL1        0.0276
     49 C           3.3899   -3.0893    8.7905 C.3     1  UNL1       -0.0404
     50 H           4.0074   -2.8635    7.9196 H       1  UNL1        0.0276
     51 H           3.6656   -2.3976    9.5922 H       1  UNL1        0.0276
     52 C           1.3230   -4.6440   10.1448 C.3     1  UNL1       -0.0397
     53 H           0.7167   -4.8395   11.0376 H       1  UNL1        0.0301
     54 C           1.7606   -5.3147    7.7956 C.3     1  UNL1       -0.0397
     55 H           1.4780   -6.0035    6.9906 H       1  UNL1        0.0301
     56 C           3.6344   -4.5290    9.2400 C.3     1  UNL1       -0.0397
     57 H           4.6979   -4.6558    9.4726 H       1  UNL1        0.0301
     58 C           0.9230   -5.6135    9.0362 C.3     1  UNL1       -0.0473
     59 H          -0.1398   -5.5011    8.8078 H       1  UNL1        0.0271
     60 H           1.0882   -6.6432    9.3617 H       1  UNL1        0.0271
     61 C           3.2412   -5.4943    8.1236 C.3     1  UNL1       -0.0473
     62 H           3.4316   -6.5235    8.4374 H       1  UNL1        0.0271
     63 H           3.8400   -5.2971    7.2326 H       1  UNL1        0.0271
     64 C           2.8003   -4.8282   10.4839 C.3     1  UNL1       -0.0473
     65 H           3.0831   -4.1541   11.2961 H       1  UNL1        0.0271
     66 H           2.9812   -5.8517   10.8205 H       1  UNL1        0.0271
@<TRIPOS>BOND
     1    35    34    1
     2    21    20    1
     3    37    36    1
     4    34    36   ar
     5    34    32   ar
     6    23    22    1
     7    36    28   ar
     8    33    32    1
     9    20    22   ar
    10    20    19   ar
    11    32    30   ar
    12    22    24   ar
    13    28    19    1
    14    28    29   ar
    15    19    18   ar
    16    30    29   ar
    17    30    31    1
    18    29     3    1
    19    24    25    1
    20    24    26   ar
    21    18    26   ar
    22    18     1    1
    23     3    38    1
    24    26    27    1
    25    39    38    1
    26    38    41    1
    27    38    40    1
    28     1    12    1
    29    13    12    1
    30    12     5    1
    31     2     4    1
    32     5     4   ar
    33     5     6   ar
    34    48    46    1
    35     4    11   ar
    36     7     6    1
    37    55    54    1
    38    47    46    1
    39     6     8   ar
    40    63    61    1
    41    46    54    1
    42    46    42    1
    43    54    61    1
    44    54    58    1
    45    50    49    1
    46    11    42    1
    47    11     9   ar
    48    61    62    1
    49    61    56    1
    50     8     9   ar
    51     8    14    1
    52    42    49    1
    53    42    43    1
    54     9    10    1
    55    17    14    1
    56    49    56    1
    57    49    51    1
    58    59    58    1
    59    58    60    1
    60    58    52    1
    61    14    16    1
    62    14    15    1
    63    56    57    1
    64    56    64    1
    65    45    43    1
    66    43    52    1
    67    43    44    1
    68    52    64    1
    69    52    53    1
    70    64    66    1
    71    64    65    1
