@<TRIPOS>MOLECULE
1,2
 11 11 0 0 0
SMALL
GASTEIGER

@<TRIPOS>ATOM
      1 N           5.4676    2.5607   10.3524 N.pl3   1  UNL1       -0.2140
      2 O           3.6258    3.7395    9.9452 O.3     1  UNL1       -0.1947
      3 C           4.7950    3.4461    9.5662 C.3     1  UNL1        0.2582
      4 C           5.4275    3.9692    8.4081 C.2     1  UNL1       -0.0248
      5 H           4.8778    4.6683    7.7967 H       1  UNL1        0.0620
      6 C           6.6980    3.5694    8.0997 C.2     1  UNL1       -0.0599
      7 H           7.1949    3.9558    7.2200 H       1  UNL1        0.0616
      8 C           7.3563    2.6526    8.9255 C.2     1  UNL1       -0.0465
      9 H           8.3572    2.3201    8.7030 H       1  UNL1        0.0630
     10 C           6.6974    2.1754   10.0353 C.2     1  UNL1        0.0151
     11 H           7.1670    1.4573   10.6950 H       1  UNL1        0.0798
@<TRIPOS>BOND
     1     7     6    1
     2     5     4    1
     3     6     4    2
     4     6     8    1
     5     4     3    1
     6     9     8    1
     7     8    10    2
     8     3     2    1
     9     3     1    1
    10    10     1    1
    11    10    11    1
