@<TRIPOS>MOLECULE
1,2
 34 36 0 0 0
SMALL
GASTEIGER

@<TRIPOS>ATOM
      1 O           1.4158    2.6824   13.0977 O.3     1  UNL1       -0.2146
      2 N           3.5189    1.4973   12.4417 N.pl3   1  UNL1       -0.2413
      3 C           1.1505    1.3506   12.8457 C.3     1  UNL1        0.1830
      4 C           2.4815    0.6478   12.5708 C.3     1  UNL1        0.1412
      5 C           4.7397    0.9748   12.2166 C.2     1  UNL1        0.0126
      6 C           4.9630   -0.3811   12.1231 C.2     1  UNL1       -0.0466
      7 C           3.8923   -1.2592   12.2735 C.2     1  UNL1       -0.0622
      8 C           2.6328   -0.7281   12.5067 C.2     1  UNL1       -0.0530
      9 C           0.5348    0.6672   14.0709 C.ar    1  UNL1       -0.0058
     10 C           0.9268    1.0971   15.3307 C.ar    1  UNL1       -0.0553
     11 C           0.4170    0.4918   16.4647 C.ar    1  UNL1       -0.0614
     12 C          -0.4846   -0.5524   16.3462 C.ar    1  UNL1       -0.0617
     13 C          -0.8769   -0.9845   15.0907 C.ar    1  UNL1       -0.0614
     14 C          -0.3702   -0.3789   13.9538 C.ar    1  UNL1       -0.0553
     15 C           0.1892    1.2692   11.6585 C.ar    1  UNL1       -0.0058
     16 C           0.4601    0.5838   10.4827 C.ar    1  UNL1       -0.0553
     17 C          -0.4500    0.6108    9.4381 C.ar    1  UNL1       -0.0614
     18 C          -1.6301    1.3238    9.5558 C.ar    1  UNL1       -0.0617
     19 C          -1.9013    2.0152   10.7254 C.ar    1  UNL1       -0.0614
     20 C          -0.9967    1.9883   11.7695 C.ar    1  UNL1       -0.0553
     21 H           5.5446    1.6953   12.1316 H       1  UNL1        0.0797
     22 H           5.9593   -0.7510   11.9412 H       1  UNL1        0.0630
     23 H           4.0364   -2.3264   12.2145 H       1  UNL1        0.0616
     24 H           1.7742   -1.3682   12.6381 H       1  UNL1        0.0596
     25 H           1.6257    1.9212   15.4053 H       1  UNL1        0.0621
     26 H           0.7247    0.8351   17.4412 H       1  UNL1        0.0618
     27 H          -0.8841   -1.0271   17.2301 H       1  UNL1        0.0618
     28 H          -1.5838   -1.7955   14.9938 H       1  UNL1        0.0618
     29 H          -0.6905   -0.7135   12.9769 H       1  UNL1        0.0621
     30 H           1.3813    0.0295   10.3690 H       1  UNL1        0.0621
     31 H          -0.2298    0.0751    8.5262 H       1  UNL1        0.0618
     32 H          -2.3344    1.3436    8.7376 H       1  UNL1        0.0618
     33 H          -2.8185    2.5772   10.8226 H       1  UNL1        0.0618
     34 H          -1.1935    2.5302   12.6835 H       1  UNL1        0.0621
@<TRIPOS>BOND
     1    31    17    1
     2    32    18    1
     3    17    18   ar
     4    17    16   ar
     5    18    19   ar
     6    30    16    1
     7    16    15   ar
     8    19    33    1
     9    19    20   ar
    10    15    20   ar
    11    15     3    1
    12    20    34    1
    13    22     6    1
    14     6     5    2
    15     6     7    1
    16    21     5    1
    17    23     7    1
    18     5     2    1
    19     7     8    2
    20     2     4    1
    21     8     4    1
    22     8    24    1
    23     4     3    1
    24     3     1    1
    25     3     9    1
    26    29    14    1
    27    14     9   ar
    28    14    13   ar
    29     9    10   ar
    30    28    13    1
    31    13    12   ar
    32    10    25    1
    33    10    11   ar
    34    12    11   ar
    35    12    27    1
    36    11    26    1
