@<TRIPOS>MOLECULE
7,8
 37 38 0 0 0
SMALL
GASTEIGER

@<TRIPOS>ATOM
      1 SI         -2.3868   -1.8937   10.2802 Si      1  UNL1        0.0000
      2 F           1.2878    2.8462   14.8322 F       1  UNL1        0.0000
      3 F           3.4743    3.6446   16.1967 F       1  UNL1        0.0000
      4 F           5.9721    3.0089   15.3061 F       1  UNL1        0.0000
      5 F           6.2574    1.5880   12.9833 F       1  UNL1        0.0000
      6 F           4.0517    0.8585   11.5624 F       1  UNL1        0.0000
      7 O           0.1029   -0.4845   11.0561 O.3     1  UNL1        0.0000
      8 N           1.5415    1.3252   12.4464 N.pl3   1  UNL1        0.0000
      9 C          -0.8849    0.3560   11.0982 C.ar    1  UNL1        0.0000
     10 C          -2.1554   -0.0316   10.6210 C.ar    1  UNL1        0.0000
     11 C          -3.1662    0.9033   10.5861 C.ar    1  UNL1        0.0000
     12 C          -2.9713    2.2239   11.0042 C.ar    1  UNL1        0.0000
     13 C          -1.7630    2.5974   11.5261 C.ar    1  UNL1        0.0000
     14 C          -0.6970    1.6756   11.6139 C.ar    1  UNL1        0.0000
     15 C          -2.3153   -2.7870   11.9586 C.3     1  UNL1        0.0000
     16 C          -4.1096   -2.1106    9.4885 C.3     1  UNL1        0.0000
     17 C          -1.0852   -2.5363    9.0427 C.3     1  UNL1        0.0000
     18 C           0.5082    2.0834   12.2286 C.3     1  UNL1        0.0000
     19 C           2.6152    1.8164   13.1575 C.ar    1  UNL1        0.0000
     20 C           2.4995    2.5515   14.3495 C.ar    1  UNL1        0.0000
     21 C           3.6200    2.9506   15.0685 C.ar    1  UNL1        0.0000
     22 C           4.8970    2.6286   14.6150 C.ar    1  UNL1        0.0000
     23 C           5.0412    1.9034   13.4339 C.ar    1  UNL1        0.0000
     24 C           3.9137    1.5202   12.7269 C.ar    1  UNL1        0.0000
     25 H          -4.1385    0.6050   10.2250 H       1  UNL1        0.0000
     26 H          -3.7820    2.9332   10.9409 H       1  UNL1        0.0000
     27 H          -1.6109    3.5991   11.9007 H       1  UNL1        0.0000
     28 H           0.5534    3.1371   12.5187 H       1  UNL1        0.0000
     29 H          -1.4368   -2.4800   12.5244 H       1  UNL1        0.0000
     30 H          -3.1899   -2.5701   12.5666 H       1  UNL1        0.0000
     31 H          -2.2571   -3.8640   11.8294 H       1  UNL1        0.0000
     32 H          -4.2770   -3.1534    9.2434 H       1  UNL1        0.0000
     33 H          -4.2133   -1.5409    8.5708 H       1  UNL1        0.0000
     34 H          -4.9044   -1.8074   10.1615 H       1  UNL1        0.0000
     35 H          -0.9826   -1.8750    8.1865 H       1  UNL1        0.0000
     36 H          -1.3603   -3.5181    8.6703 H       1  UNL1        0.0000
     37 H          -0.1173   -2.6292    9.5283 H       1  UNL1        0.0000
@<TRIPOS>BOND
     1    35    17    1
     2    33    16    1
     3    36    17    1
     4    17    37    1
     5    17     1    1
     6    32    16    1
     7    16    34    1
     8    16     1    1
     9    25    11    1
    10     1    10    1
    11     1    15    1
    12    11    10   ar
    13    11    12   ar
    14    10     9   ar
    15    26    12    1
    16    12    13   ar
    17     7     9    1
    18     9    14   ar
    19    13    14   ar
    20    13    27    1
    21     6    24    1
    22    14    18    1
    23    31    15    1
    24    15    29    1
    25    15    30    1
    26    18     8    1
    27    18    28    1
    28     8    19    1
    29    24    19   ar
    30    24    23   ar
    31     5    23    1
    32    19    20   ar
    33    23    22   ar
    34    20     2    1
    35    20    21   ar
    36    22    21   ar
    37    22     4    1
    38    21     3    1
