@<TRIPOS>MOLECULE
7,8
 37 38 0 0 0
SMALL
GASTEIGER

@<TRIPOS>ATOM
      1 SI          3.5218   -2.2195   15.6913 Si      1  UNL1        0.0000
      2 F           2.6934   -3.1319    8.2637 F       1  UNL1        0.0000
      3 F           1.4876   -2.6057    5.9077 F       1  UNL1        0.0000
      4 F           0.3222   -0.1817    5.4586 F       1  UNL1        0.0000
      5 F           0.4186    1.7448    7.4016 F       1  UNL1        0.0000
      6 F           1.7096    1.2401    9.7460 F       1  UNL1        0.0000
      7 O           2.9121   -1.1049   13.0158 O.3     1  UNL1        0.0000
      8 N           2.7662   -1.1776   10.3243 N.pl3   1  UNL1        0.0000
      9 C           3.9550   -1.8713   12.9217 C.ar    1  UNL1        0.0000
     10 C           4.5428   -2.4003   14.0907 C.ar    1  UNL1        0.0000
     11 C           5.7041   -3.1323   13.9782 C.ar    1  UNL1        0.0000
     12 C           6.3190   -3.3643   12.7434 C.ar    1  UNL1        0.0000
     13 C           5.7269   -2.9108   11.5963 C.ar    1  UNL1        0.0000
     14 C           4.5214   -2.1772   11.6457 C.ar    1  UNL1        0.0000
     15 C           3.0993   -0.3918   16.0372 C.3     1  UNL1        0.0000
     16 C           1.9748   -3.3105   15.5005 C.3     1  UNL1        0.0000
     17 C           4.6077   -2.8543   17.1263 C.3     1  UNL1        0.0000
     18 C           3.9075   -1.7905   10.4331 C.3     1  UNL1        0.0000
     19 C           2.2231   -0.9541    9.0774 C.ar    1  UNL1        0.0000
     20 C           2.1635   -1.9212    8.0599 C.ar    1  UNL1        0.0000
     21 C           1.5285   -1.6649    6.8504 C.ar    1  UNL1        0.0000
     22 C           0.9337   -0.4271    6.6180 C.ar    1  UNL1        0.0000
     23 C           0.9811    0.5521    7.6083 C.ar    1  UNL1        0.0000
     24 C           1.6238    0.2812    8.8047 C.ar    1  UNL1        0.0000
     25 H           6.1512   -3.5392   14.8722 H       1  UNL1        0.0000
     26 H           7.2402   -3.9242   12.6982 H       1  UNL1        0.0000
     27 H           6.1612   -3.1249   10.6307 H       1  UNL1        0.0000
     28 H           4.4730   -2.0228    9.5260 H       1  UNL1        0.0000
     29 H           2.7418   -0.2652   17.0544 H       1  UNL1        0.0000
     30 H           3.9650    0.2527   15.9084 H       1  UNL1        0.0000
     31 H           2.3119   -0.0542   15.3683 H       1  UNL1        0.0000
     32 H           1.4843   -3.1247   14.5459 H       1  UNL1        0.0000
     33 H           2.2211   -4.3685   15.5427 H       1  UNL1        0.0000
     34 H           1.2493   -3.1049   16.2824 H       1  UNL1        0.0000
     35 H           4.8544   -3.9044   17.0126 H       1  UNL1        0.0000
     36 H           4.0789   -2.7488   18.0669 H       1  UNL1        0.0000
     37 H           5.5368   -2.3003   17.2125 H       1  UNL1        0.0000
@<TRIPOS>BOND
     1     4    22    1
     2     3    21    1
     3    22    21   ar
     4    22    23   ar
     5    21    20   ar
     6     5    23    1
     7    23    24   ar
     8    20     2    1
     9    20    19   ar
    10    24    19   ar
    11    24     6    1
    12    19     8    1
    13    28    18    1
    14     8    18    1
    15    18    14    1
    16    27    13    1
    17    13    14   ar
    18    13    12   ar
    19    14     9   ar
    20    26    12    1
    21    12    11   ar
    22     9     7    1
    23     9    10   ar
    24    11    10   ar
    25    11    25    1
    26    10     1    1
    27    32    16    1
    28    31    15    1
    29    16    33    1
    30    16     1    1
    31    16    34    1
    32     1    15    1
    33     1    17    1
    34    30    15    1
    35    15    29    1
    36    35    17    1
    37    17    37    1
    38    17    36    1
