@<TRIPOS>MOLECULE
55,56
 57 58 0 0 0
SMALL
GASTEIGER

@<TRIPOS>ATOM
      1 C           6.6150   15.3649    5.3322 C.3     1  UNL1        0.0000
      2 H           7.5776   14.8702    5.3839 H       1  UNL1        0.0000
      3 H           6.5768   16.0819    6.1459 H       1  UNL1        0.0000
      4 H           6.5802   15.9284    4.4043 H       1  UNL1        0.0000
      5 C           3.6430   15.2591    4.9402 C.3     1  UNL1        0.0000
      6 H           2.6957   14.7307    4.9547 H       1  UNL1        0.0000
      7 H           3.7923   15.6173    3.9252 H       1  UNL1        0.0000
      8 H           3.5455   16.1308    5.5763 H       1  UNL1        0.0000
      9 C           5.2862   13.0080    3.0118 C.3     1  UNL1        0.0000
     10 H           6.0317   13.7786    2.7672 H       1  UNL1        0.0000
     11 C           5.7006   11.6809    2.3682 C.3     1  UNL1        0.0000
     12 H           6.7045   11.3962    2.6734 H       1  UNL1        0.0000
     13 H           5.6730   11.7686    1.2844 H       1  UNL1        0.0000
     14 H           5.0036   10.8984    2.6766 H       1  UNL1        0.0000
     15 C           3.9519   13.4113    2.4335 C.ar    1  UNL1        0.0000
     16 C           3.8829   14.2981    1.3677 C.ar    1  UNL1        0.0000
     17 H           4.7907   14.7384    0.9794 H       1  UNL1        0.0000
     18 C           2.6608   14.6218    0.8053 C.ar    1  UNL1        0.0000
     19 H           2.6152   15.3164   -0.0205 H       1  UNL1        0.0000
     20 C           1.4991   14.0560    1.3020 C.ar    1  UNL1        0.0000
     21 H           0.5449   14.3071    0.8631 H       1  UNL1        0.0000
     22 C           1.5640   13.1686    2.3630 C.ar    1  UNL1        0.0000
     23 H           0.6579   12.7257    2.7474 H       1  UNL1        0.0000
     24 C           2.7850   12.8465    2.9279 C.ar    1  UNL1        0.0000
     25 H           2.8492   12.1628    3.7672 H       1  UNL1        0.0000
     26 C           5.2503   13.7255    8.1886 C.ar    1  UNL1        0.0000
     27 C           4.1780   14.3102    8.8877 C.ar    1  UNL1        0.0000
     28 C           2.7936   14.3945    8.2971 C.3     1  UNL1        0.0000
     29 H           2.8258   13.9236    7.3111 H       1  UNL1        0.0000
     30 C           2.3564   15.8543    8.1495 C.3     1  UNL1        0.0000
     31 H           1.4551   15.9221    7.5442 H       1  UNL1        0.0000
     32 H           3.1402   16.4448    7.6818 H       1  UNL1        0.0000
     33 H           2.1442   16.2892    9.1235 H       1  UNL1        0.0000
     34 C           1.7873   13.6365    9.1636 C.3     1  UNL1        0.0000
     35 H           0.8001   13.6691    8.7111 H       1  UNL1        0.0000
     36 H           1.7212   14.0730   10.1573 H       1  UNL1        0.0000
     37 H           2.0806   12.5962    9.2632 H       1  UNL1        0.0000
     38 C           4.3748   14.8170   10.1642 C.ar    1  UNL1        0.0000
     39 H           3.5453   15.2703   10.6855 H       1  UNL1        0.0000
     40 C           5.6045   14.7550   10.7853 C.ar    1  UNL1        0.0000
     41 H           5.7386   15.1488   11.7818 H       1  UNL1        0.0000
     42 C           6.6614   14.1828   10.1074 C.ar    1  UNL1        0.0000
     43 H           7.6269   14.1293   10.5875 H       1  UNL1        0.0000
     44 C           6.5086   13.6881    8.8219 C.ar    1  UNL1        0.0000
     45 C           7.7047   13.0720    8.1373 C.3     1  UNL1        0.0000
     46 H           7.4350   12.9069    7.0887 H       1  UNL1        0.0000
     47 C           8.0171   11.7223    8.7902 C.3     1  UNL1        0.0000
     48 H           8.8963   11.2647    8.3430 H       1  UNL1        0.0000
     49 H           7.1698   11.0449    8.6619 H       1  UNL1        0.0000
     50 H           8.2004   11.8501    9.8553 H       1  UNL1        0.0000
     51 C           8.9275   13.9898    8.1789 C.3     1  UNL1        0.0000
     52 H           9.7366   13.5662    7.5867 H       1  UNL1        0.0000
     53 H           9.2937   14.1153    9.1944 H       1  UNL1        0.0000
     54 H           8.6800   14.9709    7.7809 H       1  UNL1        0.0000
     55 N           5.0917   13.1935    6.8901 N.pl3   1  UNL1        0.0000
     56 O           5.2478   12.8454    4.4175 O.3     1  UNL1        0.0000
     57 SI          5.1214   14.1738    5.4959 Si      1  UNL1        0.0000
@<TRIPOS>BOND
     1    19    18    1
     2    18    20   ar
     3    18    16   ar
     4    21    20    1
     5    17    16    1
     6    13    11    1
     7    20    22   ar
     8    16    15   ar
     9    22    23    1
    10    22    24   ar
    11    11    12    1
    12    11    14    1
    13    11     9    1
    14    15    24   ar
    15    15     9    1
    16    10     9    1
    17    24    25    1
    18     9    56    1
    19     7     5    1
    20     4     1    1
    21    56    57    1
    22     5     6    1
    23     5    57    1
    24     5     8    1
    25     1     2    1
    26     1    57    1
    27     1     3    1
    28    57    55    1
    29    55    26    1
    30    46    45    1
    31    29    28    1
    32    31    30    1
    33    52    51    1
    34    32    30    1
    35    54    51    1
    36    45    51    1
    37    45    47    1
    38    45    44    1
    39    30    28    1
    40    30    33    1
    41    51    53    1
    42    26    44   ar
    43    26    27   ar
    44    28    27    1
    45    28    34    1
    46    48    47    1
    47    49    47    1
    48    35    34    1
    49    47    50    1
    50    44    42   ar
    51    27    38   ar
    52    34    37    1
    53    34    36    1
    54    42    43    1
    55    42    40   ar
    56    38    39    1
    57    38    40   ar
    58    40    41    1
