@<TRIPOS>MOLECULE
2,3
 47 49 0 0 0
SMALL
GASTEIGER

@<TRIPOS>ATOM
      1 P          -5.7877   -0.3463   16.1722 P.3     1  UNL1       -0.0112
      2 O          -4.7318    0.5661   12.1741 O.2     1  UNL1       -0.2932
      3 N          -4.5900   -1.6073   14.0314 N.pl3   1  UNL1       -0.2370
      4 C          -5.1984   -0.3474   11.4214 C.2     1  UNL1        0.1513
      5 C          -5.5809    0.0661   10.0137 C.3     1  UNL1       -0.0022
      6 H          -6.3989    0.7832   10.0651 H       1  UNL1        0.0309
      7 H          -5.8859   -0.7829    9.4105 H       1  UNL1        0.0309
      8 H          -4.7322    0.5590    9.5436 H       1  UNL1        0.0309
      9 C          -5.3969   -1.6728   11.7842 C.2     1  UNL1       -0.0148
     10 H          -5.8257   -2.3261   11.0390 H       1  UNL1        0.0629
     11 C          -5.0757   -2.2750   13.0127 C.3     1  UNL1        0.0986
     12 C          -5.3814   -3.7529   13.1026 C.3     1  UNL1       -0.0358
     13 H          -4.6593   -4.3193   12.5155 H       1  UNL1        0.0255
     14 H          -6.3704   -3.9445   12.6910 H       1  UNL1        0.0255
     15 H          -5.3530   -4.1053   14.1306 H       1  UNL1        0.0255
     16 C          -4.1245   -2.2231   15.1843 C.ar    1  UNL1        0.0570
     17 C          -3.1672   -3.2382   15.2138 C.ar    1  UNL1       -0.0385
     18 H          -2.7806   -3.6322   14.2853 H       1  UNL1        0.0637
     19 C          -2.6988   -3.7180   16.4223 C.ar    1  UNL1       -0.0599
     20 H          -1.9522   -4.4995   16.4312 H       1  UNL1        0.0618
     21 C          -3.1793   -3.2112   17.6191 C.ar    1  UNL1       -0.0610
     22 H          -2.8114   -3.5974   18.5580 H       1  UNL1        0.0618
     23 C          -4.1307   -2.2043   17.6103 C.ar    1  UNL1       -0.0517
     24 H          -4.5097   -1.8055   18.5414 H       1  UNL1        0.0625
     25 C          -4.6010   -1.7091   16.4052 C.ar    1  UNL1        0.0079
     26 C          -6.0898    0.1270   17.9125 C.ar    1  UNL1       -0.0146
     27 C          -5.2649    1.1257   18.4248 C.ar    1  UNL1       -0.0535
     28 H          -4.5193    1.5664   17.7747 H       1  UNL1        0.0624
     29 C          -5.4046    1.5375   19.7366 C.ar    1  UNL1       -0.0611
     30 H          -4.7599    2.3082   20.1339 H       1  UNL1        0.0618
     31 C          -6.3793    0.9670   20.5407 C.ar    1  UNL1       -0.0617
     32 H          -6.4935    1.2907   21.5650 H       1  UNL1        0.0618
     33 C          -7.2128   -0.0137   20.0290 C.ar    1  UNL1       -0.0611
     34 H          -7.9763   -0.4536   20.6545 H       1  UNL1        0.0618
     35 C          -7.0728   -0.4353   18.7179 C.ar    1  UNL1       -0.0535
     36 H          -7.7258   -1.2000   18.3213 H       1  UNL1        0.0624
     37 C          -7.4022   -2.6792   15.9695 C.ar    1  UNL1       -0.0535
     38 H          -6.5740   -3.2272   16.3977 H       1  UNL1        0.0624
     39 C          -7.2994   -1.3052   15.7766 C.ar    1  UNL1       -0.0146
     40 C          -8.3776   -0.6121   15.2337 C.ar    1  UNL1       -0.0535
     41 H          -8.2984    0.4550   15.0839 H       1  UNL1        0.0624
     42 C          -9.5383   -1.2810   14.8913 C.ar    1  UNL1       -0.0611
     43 H         -10.3706   -0.7350   14.4714 H       1  UNL1        0.0618
     44 C          -9.6320   -2.6502   15.0803 C.ar    1  UNL1       -0.0617
     45 H         -10.5359   -3.1751   14.8075 H       1  UNL1        0.0618
     46 C          -8.5633   -3.3457   15.6208 C.ar    1  UNL1       -0.0611
     47 H          -8.6349   -4.4134   15.7736 H       1  UNL1        0.0618
@<TRIPOS>BOND
     1     7     5    1
     2     8     5    1
     3     5     6    1
     4     5     4    1
     5    10     9    1
     6     4     9    2
     7     4     2    1
     8     9    11    1
     9    13    12    1
    10    14    12    1
    11    11    12    1
    12    11     3    1
    13    12    15    1
    14     3    16    1
    15    18    17    1
    16    43    42    1
    17    45    44    1
    18    42    44   ar
    19    42    40   ar
    20    44    46   ar
    21    41    40    1
    22    16    17   ar
    23    16    25   ar
    24    17    19   ar
    25    40    39   ar
    26    46    47    1
    27    46    37   ar
    28    39    37   ar
    29    39     1    1
    30    37    38    1
    31     1    25    1
    32     1    26    1
    33    25    23   ar
    34    19    20    1
    35    19    21   ar
    36    23    21   ar
    37    23    24    1
    38    21    22    1
    39    28    27    1
    40    26    27   ar
    41    26    35   ar
    42    36    35    1
    43    27    29   ar
    44    35    33   ar
    45    29    30    1
    46    29    31   ar
    47    33    31   ar
    48    33    34    1
    49    31    32    1
