@<TRIPOS>MOLECULE
1,2
 71 74 0 0 0
SMALL
GASTEIGER

@<TRIPOS>ATOM
      1 N           4.2772    7.9813   11.9261 N.pl3   1  UNL1       -0.2397
      2 O           6.7499    7.1451   12.9117 O.3     1  UNL1       -0.2872
      3 P           5.2539    9.2427    9.7054 P.3     1  UNL1       -0.0112
      4 C           6.2981    5.9501   12.7848 C.ar    1  UNL1        0.1877
      5 C           7.1336    4.7926   12.9733 C.ar    1  UNL1        0.0053
      6 C           6.5823    3.5430   12.8673 C.ar    1  UNL1       -0.0507
      7 H           7.2187    2.6859   13.0092 H       1  UNL1        0.0625
      8 C           5.2242    3.2936   12.5884 C.ar    1  UNL1       -0.0412
      9 C           4.4192    4.3814   12.4067 C.ar    1  UNL1       -0.0493
     10 H           3.3699    4.2698   12.1804 H       1  UNL1        0.0625
     11 C           4.9214    5.6992   12.4724 C.ar    1  UNL1        0.0240
     12 C           8.6055    4.9781   13.3202 C.3     1  UNL1       -0.0090
     13 C           8.6823    5.6841   14.6796 C.3     1  UNL1       -0.0559
     14 H           8.1631    6.6363   14.6453 H       1  UNL1        0.0238
     15 H           9.7174    5.8590   14.9575 H       1  UNL1        0.0238
     16 H           8.2168    5.0654   15.4447 H       1  UNL1        0.0238
     17 C           9.3742    3.6560   13.4373 C.3     1  UNL1       -0.0559
     18 H           8.9833    3.0369   14.2418 H       1  UNL1        0.0238
     19 H          10.4163    3.8736   13.6635 H       1  UNL1        0.0238
     20 H           9.3458    3.0947   12.5054 H       1  UNL1        0.0238
     21 C           9.2979    5.8130   12.2352 C.3     1  UNL1       -0.0559
     22 H           9.2979    5.2734   11.2892 H       1  UNL1        0.0238
     23 H          10.3296    6.0134   12.5178 H       1  UNL1        0.0238
     24 H           8.7889    6.7621   12.0937 H       1  UNL1        0.0238
     25 C           4.7383    1.8554   12.5038 C.3     1  UNL1       -0.0127
     26 C           4.9638    1.1669   13.8572 C.3     1  UNL1       -0.0560
     27 H           4.6095    0.1386   13.8210 H       1  UNL1        0.0238
     28 H           4.4201    1.6923   14.6396 H       1  UNL1        0.0238
     29 H           6.0168    1.1548   14.1243 H       1  UNL1        0.0238
     30 C           5.5230    1.1181   11.4097 C.3     1  UNL1       -0.0560
     31 H           5.1669    0.0940   11.3167 H       1  UNL1        0.0238
     32 H           6.5857    1.0883   11.6328 H       1  UNL1        0.0238
     33 H           5.3898    1.6187   10.4531 H       1  UNL1        0.0238
     34 C           3.2487    1.7637   12.1621 C.3     1  UNL1       -0.0560
     35 H           3.0415    2.2260   11.1996 H       1  UNL1        0.0238
     36 H           2.6425    2.2457   12.9255 H       1  UNL1        0.0238
     37 H           2.9507    0.7185   12.1066 H       1  UNL1        0.0238
     38 C           4.0119    6.7267   12.1373 C.3     1  UNL1        0.0954
     39 H           2.9855    6.3867   11.9482 H       1  UNL1        0.0591
     40 C           3.2371    8.7674   11.4272 C.ar    1  UNL1        0.0567
     41 C           3.5215    9.4702   10.2448 C.ar    1  UNL1        0.0079
     42 C           2.5403   10.2567    9.6621 C.ar    1  UNL1       -0.0517
     43 H           2.7459   10.7887    8.7442 H       1  UNL1        0.0625
     44 C           1.2868   10.3470   10.2489 C.ar    1  UNL1       -0.0610
     45 H           0.5247   10.9601    9.7909 H       1  UNL1        0.0618
     46 C           1.0074    9.6496   11.4128 C.ar    1  UNL1       -0.0599
     47 H           0.0296    9.7215   11.8655 H       1  UNL1        0.0618
     48 C           1.9730    8.8496   11.9998 C.ar    1  UNL1       -0.0385
     49 H           1.7583    8.3057   12.9087 H       1  UNL1        0.0637
     50 C           5.1696    9.9517    8.0189 C.ar    1  UNL1       -0.0146
     51 C           5.0647   11.3354    7.9099 C.ar    1  UNL1       -0.0535
     52 H           5.0203   11.9231    8.8129 H       1  UNL1        0.0624
     53 C           5.0236   11.9449    6.6704 C.ar    1  UNL1       -0.0611
     54 H           4.9344   13.0197    6.5973 H       1  UNL1        0.0618
     55 C           5.1040   11.1759    5.5206 C.ar    1  UNL1       -0.0617
     56 H           5.0741   11.6479    4.5497 H       1  UNL1        0.0618
     57 C           5.2344    9.8012    5.6215 C.ar    1  UNL1       -0.0611
     58 H           5.3095    9.2001    4.7268 H       1  UNL1        0.0618
     59 C           5.2733    9.1888    6.8620 C.ar    1  UNL1       -0.0535
     60 H           5.3872    8.1167    6.9269 H       1  UNL1        0.0624
     61 C           5.2192    7.4469    9.3330 C.ar    1  UNL1       -0.0146
     62 C           6.3457    6.6956    9.6490 C.ar    1  UNL1       -0.0535
     63 H           7.2181    7.1938   10.0550 H       1  UNL1        0.0624
     64 C           6.3434    5.3248    9.4575 C.ar    1  UNL1       -0.0611
     65 H           7.2149    4.7419    9.7143 H       1  UNL1        0.0618
     66 C           5.2161    4.6988    8.9540 C.ar    1  UNL1       -0.0617
     67 H           5.2091    3.6280    8.8136 H       1  UNL1        0.0618
     68 C           4.0935    5.4445    8.6304 C.ar    1  UNL1       -0.0611
     69 H           3.2143    4.9554    8.2356 H       1  UNL1        0.0618
     70 C           4.0921    6.8146    8.8155 C.ar    1  UNL1       -0.0535
     71 H           3.2136    7.3973    8.5698 H       1  UNL1        0.0624
@<TRIPOS>BOND
     1    56    55    1
     2    58    57    1
     3    55    57   ar
     4    55    53   ar
     5    57    59   ar
     6    54    53    1
     7    53    51   ar
     8    59    60    1
     9    59    50   ar
    10    51    50   ar
    11    51    52    1
    12    50     3    1
    13    69    68    1
    14    71    70    1
    15    68    70   ar
    16    68    66   ar
    17    43    42    1
    18    67    66    1
    19    70    61   ar
    20    66    64   ar
    21    61    62   ar
    22    61     3    1
    23    64    62   ar
    24    64    65    1
    25    62    63    1
    26    42    41   ar
    27    42    44   ar
    28     3    41    1
    29    45    44    1
    30    41    40   ar
    31    44    46   ar
    32    33    30    1
    33    35    34    1
    34    22    21    1
    35    31    30    1
    36    30    32    1
    37    30    25    1
    38    46    47    1
    39    46    48   ar
    40    40     1    1
    41    40    48   ar
    42     1    38    1
    43    39    38    1
    44    48    49    1
    45    24    21    1
    46    37    34    1
    47    38    11    1
    48    34    25    1
    49    34    36    1
    50    10     9    1
    51    21    23    1
    52    21    12    1
    53     9    11   ar
    54     9     8   ar
    55    11     4   ar
    56    25     8    1
    57    25    26    1
    58    20    17    1
    59     8     6   ar
    60     4     2    1
    61     4     5   ar
    62     6     5   ar
    63     6     7    1
    64     5    12    1
    65    12    17    1
    66    12    13    1
    67    17    19    1
    68    17    18    1
    69    27    26    1
    70    26    29    1
    71    26    28    1
    72    14    13    1
    73    13    15    1
    74    13    16    1
