@<TRIPOS>MOLECULE
1,2
 55 56 0 0 0
SMALL
GASTEIGER

@<TRIPOS>ATOM
      1 O           3.5771    0.2621    6.6612 O.3     1  UNL1       -0.2872
      2 N           1.2263    0.8144    5.2134 N.pl3   1  UNL1       -0.2398
      3 C           0.7126    0.3026    6.2847 C.3     1  UNL1        0.0954
      4 H          -0.3782    0.1744    6.3121 H       1  UNL1        0.0591
      5 C           2.8080   -0.2594    7.5557 C.ar    1  UNL1        0.1877
      6 C           1.3810   -0.1873    7.4409 C.ar    1  UNL1        0.0237
      7 C           0.5609   -0.6836    8.4733 C.ar    1  UNL1       -0.0530
      8 H          -0.5125   -0.6036    8.3671 H       1  UNL1        0.0622
      9 C           1.1053   -1.2514    9.5878 C.ar    1  UNL1       -0.0609
     10 H           0.4793   -1.6138   10.3887 H       1  UNL1        0.0618
     11 C           2.4939   -1.3984    9.6715 C.ar    1  UNL1       -0.0544
     12 H           2.8848   -1.8934   10.5454 H       1  UNL1        0.0622
     13 C           3.3496   -0.9540    8.6926 C.ar    1  UNL1        0.0050
     14 C           4.8473   -1.2242    8.7631 C.3     1  UNL1       -0.0090
     15 C           5.2552   -2.0037   10.0185 C.3     1  UNL1       -0.0559
     16 H           4.7616   -2.9719   10.0624 H       1  UNL1        0.0238
     17 H           5.0291   -1.4432   10.9229 H       1  UNL1        0.0238
     18 H           6.3292   -2.1773    9.9934 H       1  UNL1        0.0238
     19 C           5.6253    0.0967    8.7640 C.3     1  UNL1       -0.0559
     20 H           5.4132    0.6697    7.8655 H       1  UNL1        0.0238
     21 H           6.6950   -0.1000    8.8107 H       1  UNL1        0.0238
     22 H           5.3476    0.6988    9.6268 H       1  UNL1        0.0238
     23 C           5.2354   -2.0690    7.5409 C.3     1  UNL1       -0.0559
     24 H           4.9950   -1.5429    6.6208 H       1  UNL1        0.0238
     25 H           4.6961   -3.0149    7.5541 H       1  UNL1        0.0238
     26 H           6.3029   -2.2781    7.5535 H       1  UNL1        0.0238
     27 C           0.2893    1.0701    4.1722 C.ar    1  UNL1        0.0554
     28 C          -0.5737    2.1708    4.2323 C.ar    1  UNL1       -0.0220
     29 C          -1.5407    2.3123    3.2455 C.ar    1  UNL1       -0.0565
     30 H          -2.2219    3.1486    3.2859 H       1  UNL1        0.0621
     31 C          -1.6559    1.3936    2.2218 C.ar    1  UNL1       -0.0611
     32 H          -2.4262    1.5093    1.4741 H       1  UNL1        0.0618
     33 C          -0.7774    0.3287    2.1531 C.ar    1  UNL1       -0.0565
     34 H          -0.8688   -0.3818    1.3467 H       1  UNL1        0.0621
     35 C           0.2061    0.1527    3.1149 C.ar    1  UNL1       -0.0220
     36 C          -0.4568    3.2100    5.3239 C.3     1  UNL1       -0.0197
     37 H           0.4115    2.9671    5.9446 H       1  UNL1        0.0344
     38 C          -1.7014    3.2100    6.2148 C.3     1  UNL1       -0.0586
     39 H          -1.8468    2.2343    6.6746 H       1  UNL1        0.0235
     40 H          -2.5905    3.4493    5.6362 H       1  UNL1        0.0235
     41 H          -1.6000    3.9503    7.0060 H       1  UNL1        0.0235
     42 C          -0.2175    4.5969    4.7221 C.3     1  UNL1       -0.0586
     43 H           0.6695    4.5845    4.0929 H       1  UNL1        0.0235
     44 H          -0.0682    5.3287    5.5133 H       1  UNL1        0.0235
     45 H          -1.0637    4.9161    4.1190 H       1  UNL1        0.0235
     46 C           1.1391   -1.0365    3.0585 C.3     1  UNL1       -0.0197
     47 H           2.0087   -0.8228    3.6998 H       1  UNL1        0.0344
     48 C           0.4331   -2.2765    3.6154 C.3     1  UNL1       -0.0586
     49 H           0.1413   -2.1170    4.6518 H       1  UNL1        0.0235
     50 H           1.0959   -3.1381    3.5744 H       1  UNL1        0.0235
     51 H          -0.4611   -2.4977    3.0358 H       1  UNL1        0.0235
     52 C           1.6579   -1.2957    1.6432 C.3     1  UNL1       -0.0586
     53 H           2.0309   -0.3728    1.2048 H       1  UNL1        0.0235
     54 H           0.8774   -1.6971    1.0015 H       1  UNL1        0.0235
     55 H           2.4708   -2.0179    1.6746 H       1  UNL1        0.0235
@<TRIPOS>BOND
     1    54    52    1
     2    53    52    1
     3    34    33    1
     4    32    31    1
     5    52    55    1
     6    52    46    1
     7    33    31   ar
     8    33    35   ar
     9    31    29   ar
    10    51    48    1
    11    46    35    1
    12    46    48    1
    13    46    47    1
    14    35    27   ar
    15    29    30    1
    16    29    28   ar
    17    50    48    1
    18    48    49    1
    19    43    42    1
    20    45    42    1
    21    27    28   ar
    22    27     2    1
    23    28    36    1
    24    42    36    1
    25    42    44    1
    26     2     3    1
    27    36    37    1
    28    36    38    1
    29    40    38    1
    30    38    39    1
    31    38    41    1
    32     3     4    1
    33     3     6    1
    34    24    23    1
    35     1     5    1
    36     6     5   ar
    37     6     7   ar
    38    23    26    1
    39    23    25    1
    40    23    14    1
    41     5    13   ar
    42    20    19    1
    43     8     7    1
    44     7     9   ar
    45    13    14    1
    46    13    11   ar
    47    14    19    1
    48    14    15    1
    49    19    21    1
    50    19    22    1
    51     9    11   ar
    52     9    10    1
    53    11    12    1
    54    18    15    1
    55    15    16    1
    56    15    17    1
