@<TRIPOS>MOLECULE
1,2
 55 56 0 0 0
SMALL
GASTEIGER

@<TRIPOS>ATOM
      1 O           2.9071    2.9007    3.5488 O.3     1  UNL1       -0.2872
      2 N           4.1669    3.4351    6.0602 N.pl3   1  UNL1       -0.2398
      3 C           4.0564    4.6280    5.5699 C.3     1  UNL1        0.0954
      4 H           4.3430    5.4649    6.2206 H       1  UNL1        0.0591
      5 C           3.1482    4.1384    3.2654 C.ar    1  UNL1        0.1877
      6 C           3.6502    5.0339    4.2667 C.ar    1  UNL1        0.0237
      7 C           3.7979    6.4054    3.9799 C.ar    1  UNL1       -0.0530
      8 H           4.1534    7.0644    4.7606 H       1  UNL1        0.0622
      9 C           3.5219    6.8941    2.7365 C.ar    1  UNL1       -0.0609
     10 H           3.6400    7.9435    2.5141 H       1  UNL1        0.0618
     11 C           3.0993    6.0155    1.7346 C.ar    1  UNL1       -0.0544
     12 H           2.9197    6.4351    0.7587 H       1  UNL1        0.0622
     13 C           2.9116    4.6708    1.9501 C.ar    1  UNL1        0.0050
     14 C           2.4487    3.7532    0.8233 C.3     1  UNL1       -0.0090
     15 C           2.3310    4.4761   -0.5235 C.3     1  UNL1       -0.0559
     16 H           3.2860    4.8959   -0.8314 H       1  UNL1        0.0238
     17 H           1.5840    5.2657   -0.4879 H       1  UNL1        0.0238
     18 H           2.0194    3.7605   -1.2819 H       1  UNL1        0.0238
     19 C           1.0701    3.1881    1.1822 C.3     1  UNL1       -0.0559
     20 H           0.3474    3.9933    1.2990 H       1  UNL1        0.0238
     21 H           1.1245    2.6320    2.1121 H       1  UNL1        0.0238
     22 H           0.7182    2.5199    0.3991 H       1  UNL1        0.0238
     23 C           3.4465    2.6013    0.6433 C.3     1  UNL1       -0.0559
     24 H           4.4459    2.9872    0.4506 H       1  UNL1        0.0238
     25 H           3.1472    1.9798   -0.1989 H       1  UNL1        0.0238
     26 H           3.4745    1.9814    1.5359 H       1  UNL1        0.0238
     27 C           4.6733    3.4040    7.3959 C.ar    1  UNL1        0.0554
     28 C           3.7797    3.3909    8.4738 C.ar    1  UNL1       -0.0220
     29 C           4.2893    3.4538    9.7630 C.ar    1  UNL1       -0.0565
     30 H           3.6160    3.4581   10.6050 H       1  UNL1        0.0621
     31 C           5.6510    3.5282    9.9846 C.ar    1  UNL1       -0.0611
     32 H           6.0315    3.5939   10.9932 H       1  UNL1        0.0618
     33 C           6.5247    3.5121    8.9151 C.ar    1  UNL1       -0.0565
     34 H           7.5858    3.5625    9.0991 H       1  UNL1        0.0621
     35 C           6.0574    3.4436    7.6099 C.ar    1  UNL1       -0.0220
     36 C           2.2893    3.3491    8.2265 C.3     1  UNL1       -0.0197
     37 H           2.1279    2.8148    7.2778 H       1  UNL1        0.0344
     38 C           1.7385    4.7729    8.0875 C.3     1  UNL1       -0.0586
     39 H           0.6536    4.7479    8.0114 H       1  UNL1        0.0235
     40 H           2.1339    5.2624    7.2003 H       1  UNL1        0.0235
     41 H           2.0091    5.3653    8.9600 H       1  UNL1        0.0235
     42 C           1.5254    2.6074    9.3235 C.3     1  UNL1       -0.0586
     43 H           2.0095    1.6638    9.5621 H       1  UNL1        0.0235
     44 H           0.5126    2.3952    8.9873 H       1  UNL1        0.0235
     45 H           1.4568    3.2088   10.2274 H       1  UNL1        0.0235
     46 C           7.0240    3.4231    6.4469 C.3     1  UNL1       -0.0197
     47 H           6.5200    2.9539    5.5891 H       1  UNL1        0.0344
     48 C           7.4267    4.8486    6.0554 C.3     1  UNL1       -0.0586
     49 H           6.5833    5.3978    5.6452 H       1  UNL1        0.0235
     50 H           8.2056    4.8152    5.2975 H       1  UNL1        0.0235
     51 H           7.8040    5.3857    6.9241 H       1  UNL1        0.0235
     52 C           8.2833    2.6103    6.7509 C.3     1  UNL1       -0.0586
     53 H           8.0291    1.6635    7.2190 H       1  UNL1        0.0235
     54 H           8.9550    3.1567    7.4089 H       1  UNL1        0.0235
     55 H           8.8111    2.4095    5.8217 H       1  UNL1        0.0235
@<TRIPOS>BOND
     1    18    15    1
     2    16    15    1
     3    15    17    1
     4    15    14    1
     5    25    23    1
     6    22    19    1
     7    24    23    1
     8    23    14    1
     9    23    26    1
    10    12    11    1
    11    14    19    1
    12    14    13    1
    13    19    20    1
    14    19    21    1
    15    11    13   ar
    16    11     9   ar
    17    13     5   ar
    18    10     9    1
    19     9     7   ar
    20     5     1    1
    21     5     6   ar
    22     7     6   ar
    23     7     8    1
    24     6     3    1
    25    50    48    1
    26     3     2    1
    27     3     4    1
    28    47    46    1
    29    49    48    1
    30    55    52    1
    31    48    46    1
    32    48    51    1
    33     2    27    1
    34    46    52    1
    35    46    35    1
    36    52    53    1
    37    52    54    1
    38    40    38    1
    39    37    36    1
    40    27    35   ar
    41    27    28   ar
    42    35    33   ar
    43    39    38    1
    44    38    36    1
    45    38    41    1
    46    36    28    1
    47    36    42    1
    48    28    29   ar
    49    33    34    1
    50    33    31   ar
    51    44    42    1
    52    42    43    1
    53    42    45    1
    54    29    31   ar
    55    29    30    1
    56    31    32    1
