@<TRIPOS>MOLECULE
1,2
 19 18 0 0 0
SMALL
GASTEIGER

@<TRIPOS>ATOM
      1 S           3.2287    2.1315    8.4287 S.3     1  UNL1        0.0000
      2 SI          1.3773    2.6094    5.9530 Si      1  UNL1        0.0000
      3 SI          1.1869    2.8727    8.2886 Si      1  UNL1        0.0000
      4 C          -0.1106    1.7978    5.0584 C.3     1  UNL1        0.0000
      5 C           1.2738    4.3723    5.1882 C.3     1  UNL1        0.0000
      6 C           1.1322    4.5893    9.1266 C.3     1  UNL1        0.0000
      7 C           0.0751    1.7197    9.3388 C.3     1  UNL1        0.0000
      8 H          -0.9752    2.4482    5.1291 H       1  UNL1        0.0000
      9 H           0.1742    0.6820    9.0330 H       1  UNL1        0.0000
     10 H          -0.3933    0.8331    5.4619 H       1  UNL1        0.0000
     11 H           0.1042    1.6665    4.0032 H       1  UNL1        0.0000
     12 H           2.0665    5.0341    5.5203 H       1  UNL1        0.0000
     13 H           1.2987    4.3348    4.1039 H       1  UNL1        0.0000
     14 H           0.3303    4.8318    5.4662 H       1  UNL1        0.0000
     15 H           1.7109    5.3178    8.5674 H       1  UNL1        0.0000
     16 H           0.1117    4.9530    9.1917 H       1  UNL1        0.0000
     17 H           1.5399    4.5480   10.1329 H       1  UNL1        0.0000
     18 H          -0.9698    1.9973    9.2429 H       1  UNL1        0.0000
     19 H           0.3404    1.7763   10.3909 H       1  UNL1        0.0000
@<TRIPOS>BOND
     1    11     4    1
     2    13     5    1
     3     4     8    1
     4     4    10    1
     5     4     2    1
     6     5    14    1
     7     5    12    1
     8     5     2    1
     9     2     3    1
    10     3     1    1
    11     3     6    1
    12     3     7    1
    13    15     6    1
    14     9     7    1
    15     6    16    1
    16     6    17    1
    17    18     7    1
    18     7    19    1
