@<TRIPOS>MOLECULE
1,2
 40 42 0 0 0
SMALL
GASTEIGER

@<TRIPOS>ATOM
      1 S           8.5576    5.1598    6.6348 S.2     1  UNL1        0.0000
      2 SI          9.1782    3.4078    4.1271 Si      1  UNL1        0.0000
      3 N           7.5995    4.4231    4.2757 N.ar    1  UNL1        0.0000
      4 C           7.4086    5.1524    5.3910 C.ar    1  UNL1        0.0000
      5 C           6.2484    5.9470    5.5155 C.ar    1  UNL1        0.0000
      6 H           6.1224    6.5131    6.4240 H       1  UNL1        0.0000
      7 C           5.3339    5.9868    4.5009 C.ar    1  UNL1        0.0000
      8 H           4.4419    6.5884    4.5851 H       1  UNL1        0.0000
      9 C           5.5767    5.2398    3.3362 C.ar    1  UNL1        0.0000
     10 H           4.8881    5.2615    2.5084 H       1  UNL1        0.0000
     11 C           6.7163    4.4880    3.2716 C.ar    1  UNL1        0.0000
     12 H           6.9703    3.9066    2.3996 H       1  UNL1        0.0000
     13 C           9.9072    4.4619    2.6971 C.ar    1  UNL1        0.0000
     14 C          10.6277    5.6121    3.0156 C.ar    1  UNL1        0.0000
     15 H          10.7535    5.8827    4.0573 H       1  UNL1        0.0000
     16 C          11.1886    6.4003    2.0310 C.ar    1  UNL1        0.0000
     17 H          11.7463    7.2853    2.3035 H       1  UNL1        0.0000
     18 C          11.0546    6.0641    0.6879 C.ar    1  UNL1        0.0000
     19 C          10.3407    4.9192    0.3638 C.ar    1  UNL1        0.0000
     20 H          10.2286    4.6358   -0.6741 H       1  UNL1        0.0000
     21 C           9.7770    4.1326    1.3525 C.ar    1  UNL1        0.0000
     22 H           9.2361    3.2391    1.0724 H       1  UNL1        0.0000
     23 C          11.6620    6.9287   -0.3745 C.3     1  UNL1        0.0000
     24 H          11.0884    7.8498   -0.4817 H       1  UNL1        0.0000
     25 H          11.6726    6.4186   -1.3347 H       1  UNL1        0.0000
     26 H          12.6816    7.2015   -0.1091 H       1  UNL1        0.0000
     27 C           8.5027    1.8278    3.3093 C.ar    1  UNL1        0.0000
     28 C           7.1944    1.3678    3.4037 C.ar    1  UNL1        0.0000
     29 H           6.4518    1.9624    3.9197 H       1  UNL1        0.0000
     30 C           6.8130    0.1597    2.8455 C.ar    1  UNL1        0.0000
     31 H           5.7866   -0.1702    2.9347 H       1  UNL1        0.0000
     32 C           7.7324   -0.6338    2.1746 C.ar    1  UNL1        0.0000
     33 C           9.0464   -0.1846    2.0828 C.ar    1  UNL1        0.0000
     34 H           9.7777   -0.7907    1.5662 H       1  UNL1        0.0000
     35 C           9.4215    1.0182    2.6457 C.ar    1  UNL1        0.0000
     36 H          10.4466    1.3508    2.5747 H       1  UNL1        0.0000
     37 C           7.3355   -1.9427    1.5632 C.3     1  UNL1        0.0000
     38 H           7.5194   -1.9301    0.4894 H       1  UNL1        0.0000
     39 H           6.2818   -2.1502    1.7325 H       1  UNL1        0.0000
     40 H           7.9237   -2.7545    1.9900 H       1  UNL1        0.0000
@<TRIPOS>BOND
     1    25    23    1
     2    20    19    1
     3    24    23    1
     4    23    26    1
     5    23    18    1
     6    19    18   ar
     7    19    21   ar
     8    38    37    1
     9    18    16   ar
    10    22    21    1
    11    21    13   ar
    12    37    39    1
    13    37    40    1
    14    37    32    1
    15    34    33    1
    16    16    17    1
    17    16    14   ar
    18    33    32   ar
    19    33    35   ar
    20    32    30   ar
    21    12    11    1
    22    10     9    1
    23    36    35    1
    24    35    27   ar
    25    13    14   ar
    26    13     2    1
    27    30    31    1
    28    30    28   ar
    29    14    15    1
    30    11     9   ar
    31    11     3   ar
    32    27    28   ar
    33    27     2    1
    34     9     7   ar
    35    28    29    1
    36     2     3    1
    37     3     4   ar
    38     7     8    1
    39     7     5   ar
    40     4     5   ar
    41     4     1    2
    42     5     6    1
