@<TRIPOS>MOLECULE
1,2
 35 37 0 0 0
SMALL
GASTEIGER

@<TRIPOS>ATOM
      1 S           5.4334   16.4794    3.9385 S.3     1  UNL1        0.0000
      2 SI          7.5273   16.6647    4.2227 Si      1  UNL1        0.0000
      3 C           7.9685   18.4023    4.8137 C.ar    1  UNL1        0.0000
      4 C           7.0989   19.1335    5.6123 C.ar    1  UNL1        0.0000
      5 C           7.4436   20.3937    6.0658 C.ar    1  UNL1        0.0000
      6 C           8.6693   20.9408    5.7254 C.ar    1  UNL1        0.0000
      7 C           9.5429   20.2248    4.9243 C.ar    1  UNL1        0.0000
      8 C           9.1915   18.9658    4.4729 C.ar    1  UNL1        0.0000
      9 C           8.4100   16.3623    2.5553 C.ar    1  UNL1        0.0000
     10 C           9.3666   15.3658    2.3855 C.ar    1  UNL1        0.0000
     11 C          10.0267   15.2148    1.1773 C.ar    1  UNL1        0.0000
     12 C           9.7362   16.0561    0.1175 C.ar    1  UNL1        0.0000
     13 C           8.7759   17.0438    0.2666 C.ar    1  UNL1        0.0000
     14 C           8.1213   17.1927    1.4747 C.ar    1  UNL1        0.0000
     15 C           8.2142   15.3716    5.4444 C.ar    1  UNL1        0.0000
     16 C           7.4195   14.3168    5.8808 C.ar    1  UNL1        0.0000
     17 C           7.9377   13.3140    6.6827 C.ar    1  UNL1        0.0000
     18 C           9.2650   13.3611    7.0711 C.ar    1  UNL1        0.0000
     19 C          10.0646   14.4177    6.6654 C.ar    1  UNL1        0.0000
     20 C           9.5426   15.4110    5.8580 C.ar    1  UNL1        0.0000
     21 H           6.1396   18.7076    5.8657 H       1  UNL1        0.0000
     22 H           6.7562   20.9520    6.6852 H       1  UNL1        0.0000
     23 H           8.9421   21.9247    6.0795 H       1  UNL1        0.0000
     24 H          10.4983   20.6502    4.6506 H       1  UNL1        0.0000
     25 H           9.8719   18.4143    3.8386 H       1  UNL1        0.0000
     26 H           9.6102   14.7094    3.2093 H       1  UNL1        0.0000
     27 H          10.7763   14.4439    1.0674 H       1  UNL1        0.0000
     28 H          10.2628   15.9496   -0.8206 H       1  UNL1        0.0000
     29 H           8.5490   17.7077   -0.5568 H       1  UNL1        0.0000
     30 H           7.3800   17.9704    1.5952 H       1  UNL1        0.0000
     31 H           6.3579   14.2973    5.6256 H       1  UNL1        0.0000
     32 H           7.3064   12.4976    7.0018 H       1  UNL1        0.0000
     33 H           9.6757   12.5787    7.6926 H       1  UNL1        0.0000
     34 H          11.0994   14.4623    6.9744 H       1  UNL1        0.0000
     35 H          10.1701   16.2321    5.5407 H       1  UNL1        0.0000
@<TRIPOS>BOND
     1    28    12    1
     2    29    13    1
     3    12    13   ar
     4    12    11   ar
     5    13    14   ar
     6    27    11    1
     7    11    10   ar
     8    14    30    1
     9    14     9   ar
    10    10     9   ar
    11    10    26    1
    12     9     2    1
    13    25     8    1
    14     1     2    1
    15     2     3    1
    16     2    15    1
    17     8     3   ar
    18     8     7   ar
    19    24     7    1
    20     3     4   ar
    21     7     6   ar
    22    15    20   ar
    23    15    16   ar
    24    35    20    1
    25     4    21    1
    26     4     5   ar
    27    31    16    1
    28     6     5   ar
    29     6    23    1
    30    20    19   ar
    31    16    17   ar
    32     5    22    1
    33    19    34    1
    34    19    18   ar
    35    17    32    1
    36    17    18   ar
    37    18    33    1
