@<TRIPOS>MOLECULE
1,3,7,13
 144 155 0 0 0
SMALL
GASTEIGER

@<TRIPOS>ATOM
      1 O          -5.7977    8.9576   15.8950 O.3     1  UNL1        0.0000
      2 O          -4.7228    6.7746   16.6180 O.3     1  UNL1        0.0000
      3 O          -3.4927    8.9747   16.7350 O.3     1  UNL1        0.0000
      4 O          -2.7456    5.3142   15.7331 O.3     1  UNL1        0.0000
      5 O          -2.8636    6.0360   18.3419 O.3     1  UNL1        0.0000
      6 O          -0.3238    6.2600   15.2971 O.3     1  UNL1        0.0000
      7 O          -2.5137    7.5447   14.3406 O.3     1  UNL1        0.0000
      8 O          -0.2516    6.3761   17.9782 O.3     1  UNL1        0.0000
      9 O           1.0936    8.1201   16.5112 O.3     1  UNL1        0.0000
     10 O          -1.7711    8.4333   18.7209 O.3     1  UNL1        0.0000
     11 O          -1.1334    9.6067   16.3647 O.3     1  UNL1        0.0000
     12 O           0.6339    9.8899   14.5969 O.3     1  UNL1        0.0000
     13 SI         -5.0234    8.3428   17.1181 Si      1  UNL1        0.0000
     14 SI         -3.6783    5.5884   17.0064 Si      1  UNL1        0.0000
     15 SI         -1.8237    6.1659   14.6541 Si      1  UNL1        0.0000
     16 SI          0.5615    6.5888   16.5846 Si      1  UNL1        0.0000
     17 SI         -1.5400    6.8256   18.8344 Si      1  UNL1        0.0000
     18 SI         -2.2045    9.4759   17.5607 Si      1  UNL1        0.0000
     19 SI          0.4735    9.5702   16.1635 Si      1  UNL1        0.0000
     20 SI          1.3236   10.9243   13.5262 Si      1  UNL1        0.0000
     21 C          -6.3561    7.3148   19.4222 C.3     1  UNL1        0.0000
     22 C          -7.7578    7.6754   18.9188 C.3     1  UNL1        0.0000
     23 C          -7.7542    9.2055   18.7390 C.3     1  UNL1        0.0000
     24 C          -6.3884    9.6722   19.2449 C.3     1  UNL1        0.0000
     25 C          -5.4761    8.4767   18.9532 C.3     1  UNL1        0.0000
     26 C          -5.6718    3.5511   16.4820 C.3     1  UNL1        0.0000
     27 C          -6.8556    4.0890   17.2722 C.3     1  UNL1        0.0000
     28 C          -6.5409    3.6423   18.6989 C.3     1  UNL1        0.0000
     29 C          -5.0084    3.7225   18.8138 C.3     1  UNL1        0.0000
     30 C          -4.4699    3.8931   17.3755 C.3     1  UNL1        0.0000
     31 C          -2.5705    3.9639   12.7802 C.3     1  UNL1        0.0000
     32 C          -2.0145    3.4149   11.4682 C.3     1  UNL1        0.0000
     33 C          -1.4249    4.6501   10.7775 C.3     1  UNL1        0.0000
     34 C          -1.0749    5.6346   11.9120 C.3     1  UNL1        0.0000
     35 C          -1.4789    4.9419   13.2238 C.3     1  UNL1        0.0000
     36 C           3.2090    5.9926   17.5436 C.3     1  UNL1        0.0000
     37 C           4.5088    5.5454   16.8836 C.3     1  UNL1        0.0000
     38 C           4.2494    5.8497   15.4120 C.3     1  UNL1        0.0000
     39 C           2.7886    5.4384   15.1950 C.3     1  UNL1        0.0000
     40 C           2.1099    5.4987   16.5868 C.3     1  UNL1        0.0000
     41 C          -0.8377    5.0262   20.9374 C.3     1  UNL1        0.0000
     42 C           0.6775    5.0976   20.7167 C.3     1  UNL1        0.0000
     43 C           1.0639    6.5765   20.9065 C.3     1  UNL1        0.0000
     44 C          -0.2218    7.2846   21.3346 C.3     1  UNL1        0.0000
     45 C          -1.3286    6.4539   20.6808 C.3     1  UNL1        0.0000
     46 C          -2.7800   11.0800   19.9445 C.3     1  UNL1        0.0000
     47 C          -3.2189   12.5047   20.2679 C.3     1  UNL1        0.0000
     48 C          -4.0792   12.9062   19.0645 C.3     1  UNL1        0.0000
     49 C          -3.5893   12.0397   17.8862 C.3     1  UNL1        0.0000
     50 C          -2.4604   11.1510   18.4456 C.3     1  UNL1        0.0000
     51 C           1.1917   10.4736   18.8278 C.3     1  UNL1        0.0000
     52 C           1.2371   11.8486   19.5212 C.3     1  UNL1        0.0000
     53 C           1.6831   12.8400   18.4436 C.3     1  UNL1        0.0000
     54 C           1.1547   12.2325   17.1472 C.3     1  UNL1        0.0000
     55 C           1.4257   10.7355   17.3227 C.3     1  UNL1        0.0000
     56 C           0.5740    8.9335   11.5644 C.ar    1  UNL1        0.0000
     57 C           0.5460    8.3891   10.2914 C.ar    1  UNL1        0.0000
     58 C           1.2596    8.9813    9.2635 C.ar    1  UNL1        0.0000
     59 C           2.0056   10.1214    9.5128 C.ar    1  UNL1        0.0000
     60 C           2.0229   10.6661   10.7827 C.ar    1  UNL1        0.0000
     61 C           1.3075   10.0867   11.8294 C.ar    1  UNL1        0.0000
     62 C           3.7697   10.1947   14.8061 C.ar    1  UNL1        0.0000
     63 C           5.0746   10.3588   15.2341 C.ar    1  UNL1        0.0000
     64 C           5.7527   11.5348   14.9575 C.ar    1  UNL1        0.0000
     65 C           5.1179   12.5413   14.2500 C.ar    1  UNL1        0.0000
     66 C           3.8123   12.3704   13.8243 C.ar    1  UNL1        0.0000
     67 C           3.1110   11.1989   14.0974 C.ar    1  UNL1        0.0000
     68 C           0.3242   12.5459   13.4498 C.3     1  UNL1        0.0000
     69 H          -6.0093    6.3600   19.0417 H       1  UNL1        0.0000
     70 H          -6.3494    7.2760   20.5143 H       1  UNL1        0.0000
     71 H          -7.9519    7.1910   17.9630 H       1  UNL1        0.0000
     72 H          -8.5253    7.3511   19.6216 H       1  UNL1        0.0000
     73 H          -8.5702    9.6845   19.2793 H       1  UNL1        0.0000
     74 H          -7.8454    9.4524   17.6824 H       1  UNL1        0.0000
     75 H          -6.0694   10.5854   18.7508 H       1  UNL1        0.0000
     76 H          -6.4235    9.8510   20.3223 H       1  UNL1        0.0000
     77 H          -4.5518    8.5143   19.5347 H       1  UNL1        0.0000
     78 H          -5.5985    3.9889   15.4900 H       1  UNL1        0.0000
     79 H          -5.7632    2.4678   16.3779 H       1  UNL1        0.0000
     80 H          -6.8628    5.1768   17.2061 H       1  UNL1        0.0000
     81 H          -7.8130    3.7081   16.9182 H       1  UNL1        0.0000
     82 H          -6.8705    2.6109   18.8344 H       1  UNL1        0.0000
     83 H          -7.0470    4.2532   19.4451 H       1  UNL1        0.0000
     84 H          -4.6139    2.8122   19.2653 H       1  UNL1        0.0000
     85 H          -4.6937    4.5534   19.4421 H       1  UNL1        0.0000
     86 H          -3.6724    3.1684   17.1989 H       1  UNL1        0.0000
     87 H          -2.7513    3.1888   13.5223 H       1  UNL1        0.0000
     88 H          -3.5059    4.4836   12.5841 H       1  UNL1        0.0000
     89 H          -1.2263    2.6900   11.6761 H       1  UNL1        0.0000
     90 H          -2.7754    2.9271   10.8599 H       1  UNL1        0.0000
     91 H          -2.1641    5.0895   10.1067 H       1  UNL1        0.0000
     92 H          -0.5506    4.3913   10.1808 H       1  UNL1        0.0000
     93 H          -1.6300    6.5670   11.7985 H       1  UNL1        0.0000
     94 H          -0.0150    5.8805   11.9269 H       1  UNL1        0.0000
     95 H          -0.6279    4.3304   13.5402 H       1  UNL1        0.0000
     96 H           3.1871    7.0806   17.6009 H       1  UNL1        0.0000
     97 H           3.0849    5.5918   18.5480 H       1  UNL1        0.0000
     98 H           5.3825    6.0660   17.2746 H       1  UNL1        0.0000
     99 H           4.6522    4.4728   17.0252 H       1  UNL1        0.0000
    100 H           4.9307    5.3198   14.7468 H       1  UNL1        0.0000
    101 H           4.3643    6.9198   15.2371 H       1  UNL1        0.0000
    102 H           2.7330    4.4252   14.7974 H       1  UNL1        0.0000
    103 H           2.2971    6.0990   14.4839 H       1  UNL1        0.0000
    104 H           1.8449    4.4804   16.8798 H       1  UNL1        0.0000
    105 H          -1.0530    4.7470   21.9715 H       1  UNL1        0.0000
    106 H          -1.3159    4.3033   20.2800 H       1  UNL1        0.0000
    107 H           1.2069    4.4489   21.4152 H       1  UNL1        0.0000
    108 H           0.9190    4.7802   19.7047 H       1  UNL1        0.0000
    109 H           1.4066    6.9904   19.9602 H       1  UNL1        0.0000
    110 H           1.8565    6.7006   21.6448 H       1  UNL1        0.0000
    111 H          -0.2413    8.3262   21.0220 H       1  UNL1        0.0000
    112 H          -0.3288    7.2450   22.4214 H       1  UNL1        0.0000
    113 H          -2.2821    6.6216   21.1873 H       1  UNL1        0.0000
    114 H          -3.6026   10.3910   20.1254 H       1  UNL1        0.0000
    115 H          -1.9244   10.7537   20.5325 H       1  UNL1        0.0000
    116 H          -3.7667   12.5727   21.2067 H       1  UNL1        0.0000
    117 H          -2.3439   13.1530   20.3372 H       1  UNL1        0.0000
    118 H          -3.9844   13.9695   18.8481 H       1  UNL1        0.0000
    119 H          -5.1300   12.7062   19.2734 H       1  UNL1        0.0000
    120 H          -3.2291   12.6589   17.0663 H       1  UNL1        0.0000
    121 H          -4.3991   11.4205   17.4977 H       1  UNL1        0.0000
    122 H          -1.5319   11.7222   18.3576 H       1  UNL1        0.0000
    123 H           0.2293    9.9913   18.9925 H       1  UNL1        0.0000
    124 H           1.9590    9.8063   19.2173 H       1  UNL1        0.0000
    125 H           0.2469   12.1206   19.8864 H       1  UNL1        0.0000
    126 H           1.9154   11.8522   20.3736 H       1  UNL1        0.0000
    127 H           2.7723   12.8844   18.4027 H       1  UNL1        0.0000
    128 H           1.3063   13.8461   18.6251 H       1  UNL1        0.0000
    129 H           1.6618   12.6257   16.2680 H       1  UNL1        0.0000
    130 H           0.0858   12.4212   17.0438 H       1  UNL1        0.0000
    131 H           2.4941   10.5956   17.1288 H       1  UNL1        0.0000
    132 H           0.0267    8.4613   12.3677 H       1  UNL1        0.0000
    133 H          -0.0344    7.5002   10.0960 H       1  UNL1        0.0000
    134 H           1.2368    8.5546    8.2713 H       1  UNL1        0.0000
    135 H           2.5700   10.5843    8.7160 H       1  UNL1        0.0000
    136 H           2.6048   11.5555   10.9752 H       1  UNL1        0.0000
    137 H           3.2366    9.2823   15.0280 H       1  UNL1        0.0000
    138 H           5.5669    9.5700   15.7849 H       1  UNL1        0.0000
    139 H           6.7716   11.6661   15.2916 H       1  UNL1        0.0000
    140 H           5.6423   13.4605   14.0312 H       1  UNL1        0.0000
    141 H           3.3241   13.1620   13.2748 H       1  UNL1        0.0000
    142 H          -0.7399   12.3334   13.4002 H       1  UNL1        0.0000
    143 H           0.5833   13.1222   12.5670 H       1  UNL1        0.0000
    144 H           0.4932   13.1774   14.3164 H       1  UNL1        0.0000
@<TRIPOS>BOND
     1   134    58    1
     2   135    59    1
     3    58    59   ar
     4    58    57   ar
     5    59    60   ar
     6   133    57    1
     7    91    33    1
     8    92    33    1
     9    57    56   ar
    10    33    32    1
    11    33    34    1
    12    60   136    1
    13    60    61   ar
    14    90    32    1
    15    32    89    1
    16    32    31    1
    17    56    61   ar
    18    56   132    1
    19    93    34    1
    20    61    20    1
    21    34    94    1
    22    34    35    1
    23   143    68    1
    24    88    31    1
    25    31    35    1
    26    31    87    1
    27    35    95    1
    28    35    15    1
    29   141    66    1
    30   142    68    1
    31    68    20    1
    32    68   144    1
    33    20    67    1
    34    20    12    1
    35    66    67   ar
    36    66    65   ar
    37   140    65    1
    38    67    62   ar
    39    65    64   ar
    40     7    15    1
    41   103    39    1
    42    12    19    1
    43    15     6    1
    44    15     4    1
    45   100    38    1
    46   102    39    1
    47    62   137    1
    48    62    63   ar
    49    64    63   ar
    50    64   139    1
    51    39    38    1
    52    39    40    1
    53    63   138    1
    54   101    38    1
    55     6    16    1
    56    38    37    1
    57    78    26    1
    58     4    14    1
    59     1    13    1
    60    19    11    1
    61    19     9    1
    62    19    55    1
    63   129    54    1
    64    11    18    1
    65    79    26    1
    66    26    27    1
    67    26    30    1
    68     9    16    1
    69    16    40    1
    70    16     8    1
    71    40   104    1
    72    40    36    1
    73     2    14    1
    74     2    13    1
    75     3    13    1
    76     3    18    1
    77    37    99    1
    78    37    98    1
    79    37    36    1
    80    81    27    1
    81    14    30    1
    82    14     5    1
    83   130    54    1
    84   120    49    1
    85    13    25    1
    86   131    55    1
    87    54    55    1
    88    54    53    1
    89    86    30    1
    90    80    27    1
    91    27    28    1
    92    55    51    1
    93    30    29    1
    94   121    49    1
    95    36    96    1
    96    36    97    1
    97    18    50    1
    98    18    10    1
    99    74    23    1
   100    49    50    1
   101    49    48    1
   102    71    22    1
   103     8    17    1
   104     5    17    1
   105   122    50    1
   106   127    53    1
   107    53   128    1
   108    53    52    1
   109    50    46    1
   110    28    29    1
   111    28    82    1
   112    28    83    1
   113    10    17    1
   114    23    22    1
   115    23    24    1
   116    23    73    1
   117    75    24    1
   118    29    84    1
   119    29    85    1
   120    51   123    1
   121    51   124    1
   122    51    52    1
   123    17    45    1
   124   118    48    1
   125    22    21    1
   126    22    72    1
   127    25    24    1
   128    25    21    1
   129    25    77    1
   130    69    21    1
   131    48   119    1
   132    48    47    1
   133    24    76    1
   134    21    70    1
   135    52   125    1
   136    52   126    1
   137   108    42    1
   138    46   114    1
   139    46    47    1
   140    46   115    1
   141   109    43    1
   142    47   117    1
   143    47   116    1
   144   106    41    1
   145    45    41    1
   146    45   113    1
   147    45    44    1
   148    42    43    1
   149    42    41    1
   150    42   107    1
   151    43    44    1
   152    43   110    1
   153    41   105    1
   154   111    44    1
   155    44   112    1
