@<TRIPOS>MOLECULE
1,2,5,6,7,8,9
 74 74 0 0 0
SMALL
GASTEIGER

@<TRIPOS>ATOM
      1 P           8.2858    9.3843    4.3974 P.3     1  UNL1        0.0000
      2 P           6.0640    6.3541    8.1646 P.3     1  UNL1        0.0000
      3 SI          7.0718   12.0213    5.5341 Si      1  UNL1        0.0000
      4 SI          5.1464    8.7528    9.9399 Si      1  UNL1        0.0000
      5 C           7.0910   10.8992    7.0268 C.2     1  UNL1        0.0000
      6 C           5.9498   10.4452    7.7121 C.2     1  UNL1        0.0000
      7 C           6.3328    9.6072    8.7789 C.2     1  UNL1        0.0000
      8 C           7.7567    9.5925    8.7887 C.2     1  UNL1        0.0000
      9 C           8.2190   10.3667    7.7215 C.3     1  UNL1        0.0000
     10 C           8.2155   11.2261    4.1990 C.3     1  UNL1        0.0000
     11 C           4.6953    7.0279    9.1954 C.3     1  UNL1        0.0000
     12 C           7.7765   13.7549    5.9173 C.3     1  UNL1        0.0000
     13 C           5.2931   12.1529    4.8581 C.3     1  UNL1        0.0000
     14 C           7.5889    8.7849    2.7571 C.3     1  UNL1        0.0000
     15 C          10.1182    9.0788    4.1406 C.3     1  UNL1        0.0000
     16 C           6.1138    9.1731    2.6824 C.3     1  UNL1        0.0000
     17 C           8.3357    9.2633    1.5138 C.3     1  UNL1        0.0000
     18 C          10.3922    7.5873    3.9700 C.3     1  UNL1        0.0000
     19 C          10.9355    9.6236    5.3097 C.3     1  UNL1        0.0000
     20 C           3.5077    9.7236   10.0585 C.3     1  UNL1        0.0000
     21 C           5.9126    8.6155   11.6853 C.3     1  UNL1        0.0000
     22 C           5.2915    4.8292    7.3687 C.3     1  UNL1        0.0000
     23 C           7.2789    5.6662    9.4312 C.3     1  UNL1        0.0000
     24 C           4.6515    3.8322    8.3327 C.3     1  UNL1        0.0000
     25 C           4.2634    5.2484    6.3189 C.3     1  UNL1        0.0000
     26 C           8.1401    4.5884    8.7706 C.3     1  UNL1        0.0000
     27 C           6.7217    5.1820   10.7672 C.3     1  UNL1        0.0000
     28 H           4.9353   10.7359    7.4871 H       1  UNL1        0.0000
     29 H           8.3768    9.1317    9.5468 H       1  UNL1        0.0000
     30 H           9.2540   10.6180    7.5291 H       1  UNL1        0.0000
     31 H           9.2247   11.6269    4.2826 H       1  UNL1        0.0000
     32 H           7.8615   11.4664    3.1981 H       1  UNL1        0.0000
     33 H           3.8659    7.1837    8.5013 H       1  UNL1        0.0000
     34 H           4.3754    6.3013    9.9408 H       1  UNL1        0.0000
     35 H           8.7783   13.7034    6.3315 H       1  UNL1        0.0000
     36 H           7.8196   14.3655    5.0215 H       1  UNL1        0.0000
     37 H           7.1524   14.2717    6.6377 H       1  UNL1        0.0000
     38 H           4.6829   12.7636    5.5156 H       1  UNL1        0.0000
     39 H           5.2672   12.6128    3.8748 H       1  UNL1        0.0000
     40 H           4.8229   11.1756    4.7858 H       1  UNL1        0.0000
     41 H           7.6436    7.6912    2.8050 H       1  UNL1        0.0000
     42 H          10.4015    9.6238    3.2300 H       1  UNL1        0.0000
     43 H           5.9898   10.2528    2.6215 H       1  UNL1        0.0000
     44 H           5.6565    8.7304    1.7993 H       1  UNL1        0.0000
     45 H           5.5776    8.8041    3.5562 H       1  UNL1        0.0000
     46 H           9.3340    8.8390    1.4515 H       1  UNL1        0.0000
     47 H           7.7866    8.9451    0.6289 H       1  UNL1        0.0000
     48 H           8.4155   10.3482    1.4798 H       1  UNL1        0.0000
     49 H          10.0616    7.0421    4.8532 H       1  UNL1        0.0000
     50 H           9.8774    7.1768    3.1047 H       1  UNL1        0.0000
     51 H          11.4606    7.4173    3.8452 H       1  UNL1        0.0000
     52 H          10.7241    9.0546    6.2133 H       1  UNL1        0.0000
     53 H          11.9978    9.5226    5.0922 H       1  UNL1        0.0000
     54 H          10.7320   10.6782    5.4934 H       1  UNL1        0.0000
     55 H           3.6801   10.7326   10.4169 H       1  UNL1        0.0000
     56 H           3.0155    9.7944    9.0938 H       1  UNL1        0.0000
     57 H           2.8175    9.2449   10.7457 H       1  UNL1        0.0000
     58 H           5.2878    8.0272   12.3498 H       1  UNL1        0.0000
     59 H           6.9045    8.1761   11.6779 H       1  UNL1        0.0000
     60 H           6.0004    9.6061   12.1189 H       1  UNL1        0.0000
     61 H           6.1232    4.3433    6.8423 H       1  UNL1        0.0000
     62 H           7.9332    6.5261    9.6417 H       1  UNL1        0.0000
     63 H           3.8857    4.3072    8.9417 H       1  UNL1        0.0000
     64 H           4.1720    3.0419    7.7561 H       1  UNL1        0.0000
     65 H           5.3827    3.3623    8.9833 H       1  UNL1        0.0000
     66 H           3.4247    5.7749    6.7709 H       1  UNL1        0.0000
     67 H           4.7135    5.8904    5.5655 H       1  UNL1        0.0000
     68 H           3.8748    4.3647    5.8151 H       1  UNL1        0.0000
     69 H           7.5970    3.6513    8.6756 H       1  UNL1        0.0000
     70 H           8.4621    4.9085    7.7796 H       1  UNL1        0.0000
     71 H           9.0308    4.4046    9.3688 H       1  UNL1        0.0000
     72 H           6.1798    5.9681   11.2826 H       1  UNL1        0.0000
     73 H           6.0645    4.3261   10.6518 H       1  UNL1        0.0000
     74 H           7.5535    4.8771   11.4016 H       1  UNL1        0.0000
@<TRIPOS>BOND
     1    47    17    1
     2    46    17    1
     3    48    17    1
     4    17    14    1
     5    44    16    1
     6    43    16    1
     7    16    14    1
     8    16    45    1
     9    14    41    1
    10    14     1    1
    11    50    18    1
    12    32    10    1
    13    42    15    1
    14    51    18    1
    15    39    13    1
    16    18    15    1
    17    18    49    1
    18    15     1    1
    19    15    19    1
    20    10    31    1
    21    10     1    1
    22    10     3    1
    23    40    13    1
    24    13    38    1
    25    13     3    1
    26    36    12    1
    27    53    19    1
    28    19    54    1
    29    19    52    1
    30     3    12    1
    31     3     5    1
    32    67    25    1
    33    68    25    1
    34    12    35    1
    35    12    37    1
    36    25    66    1
    37    25    22    1
    38    61    22    1
    39     5     6    2
    40     5     9    1
    41    22     2    1
    42    22    24    1
    43    28     6    1
    44    30     9    1
    45     6     7    1
    46     9     8    1
    47    64    24    1
    48    70    26    1
    49     2    11    1
    50     2    23    1
    51    24    63    1
    52    24    65    1
    53    33    11    1
    54    69    26    1
    55    26    71    1
    56    26    23    1
    57     7     8    2
    58     7     4    1
    59     8    29    1
    60    56    20    1
    61    11     4    1
    62    11    34    1
    63    23    62    1
    64    23    27    1
    65     4    20    1
    66     4    21    1
    67    20    55    1
    68    20    57    1
    69    73    27    1
    70    27    72    1
    71    27    74    1
    72    59    21    1
    73    21    60    1
    74    21    58    1
