@<TRIPOS>MOLECULE
1,2,5,6,7,8,9
 78 82 0 0 0
SMALL
GASTEIGER

@<TRIPOS>ATOM
      1 P           5.0075    2.4663    3.0448 P.3     1  UNL1        0.0000
      2 P           1.6169    3.8352    6.3970 P.3     1  UNL1        0.0000
      3 SI          6.3222    5.1457    2.7005 Si      1  UNL1        0.0000
      4 SI          2.2577    6.8624    6.5160 Si      1  UNL1        0.0000
      5 C           4.6472    5.6439    3.3922 C.2     1  UNL1        0.0000
      6 C           4.4061    6.1379    4.6835 C.2     1  UNL1        0.0000
      7 C           3.0229    6.2676    4.9092 C.2     1  UNL1        0.0000
      8 C           2.3777    5.8623    3.7078 C.2     1  UNL1        0.0000
      9 C           3.3710    5.4828    2.7761 C.3     1  UNL1        0.0000
     10 C           5.9188    3.4899    1.8220 C.3     1  UNL1        0.0000
     11 C           1.6542    5.3059    7.4834 C.3     1  UNL1        0.0000
     12 C           7.5420    4.8093    4.1234 C.3     1  UNL1        0.0000
     13 C           6.9963    6.4052    1.4403 C.3     1  UNL1        0.0000
     14 C           3.5922    7.6909    7.5964 C.3     1  UNL1        0.0000
     15 C           0.8432    8.0973    6.1717 C.3     1  UNL1        0.0000
     16 C           4.1472    1.2408    1.9998 C.ar    1  UNL1        0.0000
     17 C           3.4493    1.6518    0.8680 C.ar    1  UNL1        0.0000
     18 C           2.7440    0.7377    0.1080 C.ar    1  UNL1        0.0000
     19 C           2.7177   -0.5971    0.4757 C.ar    1  UNL1        0.0000
     20 C           3.3937   -1.0115    1.6111 C.ar    1  UNL1        0.0000
     21 C           4.1017   -0.1004    2.3726 C.ar    1  UNL1        0.0000
     22 C           6.3487    1.4361    3.7268 C.ar    1  UNL1        0.0000
     23 C           6.5587    1.3537    5.0967 C.ar    1  UNL1        0.0000
     24 C           7.5891    0.5723    5.5934 C.ar    1  UNL1        0.0000
     25 C           8.4083   -0.1321    4.7290 C.ar    1  UNL1        0.0000
     26 C           8.1912   -0.0660    3.3608 C.ar    1  UNL1        0.0000
     27 C           7.1652    0.7111    2.8601 C.ar    1  UNL1        0.0000
     28 C           1.3930    2.5154    7.6364 C.ar    1  UNL1        0.0000
     29 C           2.5016    1.8496    8.1476 C.ar    1  UNL1        0.0000
     30 C           2.3385    0.8926    9.1332 C.ar    1  UNL1        0.0000
     31 C           1.0750    0.5987    9.6176 C.ar    1  UNL1        0.0000
     32 C          -0.0300    1.2684    9.1181 C.ar    1  UNL1        0.0000
     33 C           0.1247    2.2251    8.1321 C.ar    1  UNL1        0.0000
     34 C          -0.0108    3.8367    5.5917 C.ar    1  UNL1        0.0000
     35 C          -0.3325    2.6776    4.8837 C.ar    1  UNL1        0.0000
     36 C          -1.5212    2.5975    4.1864 C.ar    1  UNL1        0.0000
     37 C          -2.3954    3.6751    4.1796 C.ar    1  UNL1        0.0000
     38 C          -2.0791    4.8270    4.8780 C.ar    1  UNL1        0.0000
     39 C          -0.8904    4.9107    5.5849 C.ar    1  UNL1        0.0000
     40 H           5.1758    6.4151    5.3886 H       1  UNL1        0.0000
     41 H           1.3225    5.9788    3.4924 H       1  UNL1        0.0000
     42 H           3.2052    5.3031    1.7217 H       1  UNL1        0.0000
     43 H           6.7978    2.9554    1.4650 H       1  UNL1        0.0000
     44 H           5.2648    3.6760    0.9708 H       1  UNL1        0.0000
     45 H           0.6912    5.4052    7.9885 H       1  UNL1        0.0000
     46 H           2.4045    5.0622    8.2409 H       1  UNL1        0.0000
     47 H           7.9562    5.7319    4.5187 H       1  UNL1        0.0000
     48 H           7.0435    4.2908    4.9404 H       1  UNL1        0.0000
     49 H           8.3721    4.1873    3.7999 H       1  UNL1        0.0000
     50 H           6.2974    6.5925    0.6322 H       1  UNL1        0.0000
     51 H           7.2035    7.3527    1.9239 H       1  UNL1        0.0000
     52 H           7.9224    6.0484    1.0044 H       1  UNL1        0.0000
     53 H           4.0465    8.5330    7.0839 H       1  UNL1        0.0000
     54 H           3.1641    8.0624    8.5224 H       1  UNL1        0.0000
     55 H           4.3815    6.9914    7.8556 H       1  UNL1        0.0000
     56 H           0.2330    7.8191    5.3188 H       1  UNL1        0.0000
     57 H           0.1931    8.2001    7.0344 H       1  UNL1        0.0000
     58 H           1.2629    9.0756    5.9643 H       1  UNL1        0.0000
     59 H           3.4423    2.6947    0.5814 H       1  UNL1        0.0000
     60 H           2.2065    1.0692   -0.7686 H       1  UNL1        0.0000
     61 H           2.1638   -1.3103   -0.1170 H       1  UNL1        0.0000
     62 H           3.3645   -2.0492    1.9097 H       1  UNL1        0.0000
     63 H           4.6121   -0.4235    3.2687 H       1  UNL1        0.0000
     64 H           5.9121    1.8952    5.7728 H       1  UNL1        0.0000
     65 H           7.7487    0.5135    6.6597 H       1  UNL1        0.0000
     66 H           9.2119   -0.7410    5.1170 H       1  UNL1        0.0000
     67 H           8.8212   -0.6265    2.6851 H       1  UNL1        0.0000
     68 H           6.9819    0.7414    1.7938 H       1  UNL1        0.0000
     69 H           3.4873    2.0766    7.7668 H       1  UNL1        0.0000
     70 H           3.2017    0.3731    9.5220 H       1  UNL1        0.0000
     71 H           0.9491   -0.1519   10.3843 H       1  UNL1        0.0000
     72 H          -1.0169    1.0441    9.4967 H       1  UNL1        0.0000
     73 H          -0.7408    2.7429    7.7414 H       1  UNL1        0.0000
     74 H           0.3654    1.8470    4.8893 H       1  UNL1        0.0000
     75 H          -1.7657    1.6986    3.6405 H       1  UNL1        0.0000
     76 H          -3.3225    3.6160    3.6286 H       1  UNL1        0.0000
     77 H          -2.7599    5.6666    4.8742 H       1  UNL1        0.0000
     78 H          -0.6537    5.8106    6.1318 H       1  UNL1        0.0000
@<TRIPOS>BOND
     1    60    18    1
     2    61    19    1
     3    18    19   ar
     4    18    17   ar
     5    19    20   ar
     6    59    17    1
     7    50    13    1
     8    17    16   ar
     9    44    10    1
    10    52    13    1
    11    13    51    1
    12    13     3    1
    13    43    10    1
    14    20    62    1
    15    20    21   ar
    16    42     9    1
    17    68    27    1
    18    10     3    1
    19    10     1    1
    20    16    21   ar
    21    16     1    1
    22    21    63    1
    23    67    26    1
    24     3     5    1
    25     3    12    1
    26     9     5    1
    27     9     8    1
    28    27    26   ar
    29    27    22   ar
    30     1    22    1
    31    26    25   ar
    32     5     6    2
    33    41     8    1
    34    76    37    1
    35    75    36    1
    36     8     7    2
    37    22    23   ar
    38    49    12    1
    39    12    47    1
    40    12    48    1
    41    37    36   ar
    42    37    38   ar
    43    36    35   ar
    44     6     7    1
    45     6    40    1
    46    25    66    1
    47    25    24   ar
    48    77    38    1
    49    38    39   ar
    50    35    74    1
    51    35    34   ar
    52     7     4    1
    53    23    24   ar
    54    23    64    1
    55    56    15    1
    56    39    34   ar
    57    39    78    1
    58    34     2    1
    59    24    65    1
    60    58    15    1
    61    15     4    1
    62    15    57    1
    63     2    11    1
    64     2    28    1
    65     4    11    1
    66     4    14    1
    67    53    14    1
    68    11    45    1
    69    11    46    1
    70    14    55    1
    71    14    54    1
    72    28    33   ar
    73    28    29   ar
    74    73    33    1
    75    69    29    1
    76    33    32   ar
    77    29    30   ar
    78    32    72    1
    79    32    31   ar
    80    30    70    1
    81    30    31   ar
    82    31    71    1
