@<TRIPOS>MOLECULE
1,2,5,6,7,8,9
 74 74 0 0 0
SMALL
GASTEIGER

@<TRIPOS>ATOM
      1 P           0.7715    1.0271    3.2752 P.3     1  UNL1        0.0000
      2 P           4.8324    3.5864    5.0076 P.3     1  UNL1        0.0000
      3 SI         -0.5560    3.5749    2.1381 Si      1  UNL1        0.0000
      4 SI          3.7045    6.4669    4.9349 Si      1  UNL1        0.0000
      5 C           0.5255    4.2445    3.5162 C.3     1  UNL1        0.0000
      6 C           1.6665    5.0556    3.3468 C.2     1  UNL1        0.0000
      7 C           2.1862    5.4280    4.5966 C.2     1  UNL1        0.0000
      8 C           1.3456    4.8409    5.5787 C.2     1  UNL1        0.0000
      9 C           0.3263    4.1241    4.9218 C.2     1  UNL1        0.0000
     10 C          -0.1199    1.7231    1.8402 C.3     1  UNL1        0.0000
     11 C           4.9008    5.2381    5.8024 C.3     1  UNL1        0.0000
     12 C          -0.1983    4.5100    0.5161 C.3     1  UNL1        0.0000
     13 C          -2.3948    3.7585    2.6177 C.3     1  UNL1        0.0000
     14 C           4.3827    7.2123    3.3165 C.3     1  UNL1        0.0000
     15 C           3.3281    7.8706    6.1702 C.3     1  UNL1        0.0000
     16 C          -0.5560    0.6182    4.5324 C.3     1  UNL1        0.0000
     17 C           1.4029   -0.6269    2.6609 C.3     1  UNL1        0.0000
     18 C           0.0157   -0.3916    5.5274 C.3     1  UNL1        0.0000
     19 C          -1.9328    0.2043    4.0215 C.3     1  UNL1        0.0000
     20 C           2.4959   -0.4176    1.6152 C.3     1  UNL1        0.0000
     21 C           0.3298   -1.5589    2.1014 C.3     1  UNL1        0.0000
     22 C           5.9225    3.7595    3.4983 C.3     1  UNL1        0.0000
     23 C           5.7780    2.5030    6.2106 C.3     1  UNL1        0.0000
     24 C           6.4113    2.3780    3.0645 C.3     1  UNL1        0.0000
     25 C           7.0711    4.7628    3.5550 C.3     1  UNL1        0.0000
     26 C           4.8943    2.2080    7.4204 C.3     1  UNL1        0.0000
     27 C           7.1215    3.0643    6.6676 C.3     1  UNL1        0.0000
     28 H           2.0452    5.3943    2.3937 H       1  UNL1        0.0000
     29 H           1.3953    5.0404    6.6398 H       1  UNL1        0.0000
     30 H          -0.5579    3.7245    5.4002 H       1  UNL1        0.0000
     31 H           0.5957    1.6772    1.0172 H       1  UNL1        0.0000
     32 H          -0.9776    1.1011    1.5869 H       1  UNL1        0.0000
     33 H           4.5353    5.0871    6.8207 H       1  UNL1        0.0000
     34 H           5.9315    5.5826    5.8620 H       1  UNL1        0.0000
     35 H           0.8327    4.3730    0.2044 H       1  UNL1        0.0000
     36 H          -0.8363    4.1533   -0.2864 H       1  UNL1        0.0000
     37 H          -0.3755    5.5748    0.6289 H       1  UNL1        0.0000
     38 H          -2.6721    4.8069    2.6193 H       1  UNL1        0.0000
     39 H          -3.0334    3.2545    1.9000 H       1  UNL1        0.0000
     40 H          -2.6172    3.3607    3.6022 H       1  UNL1        0.0000
     41 H           5.2976    7.7712    3.4878 H       1  UNL1        0.0000
     42 H           4.5866    6.4551    2.5661 H       1  UNL1        0.0000
     43 H           3.6571    7.9035    2.8981 H       1  UNL1        0.0000
     44 H           4.2346    8.4028    6.4387 H       1  UNL1        0.0000
     45 H           2.6422    8.5897    5.7364 H       1  UNL1        0.0000
     46 H           2.8794    7.4994    7.0856 H       1  UNL1        0.0000
     47 H          -0.6831    1.5681    5.0681 H       1  UNL1        0.0000
     48 H           1.8667   -1.0884    3.5414 H       1  UNL1        0.0000
     49 H          -0.5697   -0.3921    6.4452 H       1  UNL1        0.0000
     50 H           0.0024   -1.3984    5.1172 H       1  UNL1        0.0000
     51 H           1.0462   -0.1315    5.7785 H       1  UNL1        0.0000
     52 H          -2.5946    0.0583    4.8750 H       1  UNL1        0.0000
     53 H          -2.3668    0.9753    3.3905 H       1  UNL1        0.0000
     54 H          -1.9045   -0.7255    3.4626 H       1  UNL1        0.0000
     55 H           2.9609   -1.3722    1.3746 H       1  UNL1        0.0000
     56 H           2.0906    0.0044    0.6973 H       1  UNL1        0.0000
     57 H           3.2693    0.2474    1.9921 H       1  UNL1        0.0000
     58 H          -0.3442   -1.9154    2.8746 H       1  UNL1        0.0000
     59 H          -0.2491   -1.0747    1.3178 H       1  UNL1        0.0000
     60 H           0.8157   -2.4301    1.6635 H       1  UNL1        0.0000
     61 H           5.2146    4.1085    2.7337 H       1  UNL1        0.0000
     62 H           5.9417    1.5593    5.6783 H       1  UNL1        0.0000
     63 H           5.5894    1.6618    3.0831 H       1  UNL1        0.0000
     64 H           6.7957    2.4234    2.0470 H       1  UNL1        0.0000
     65 H           7.2055    2.0170    3.7148 H       1  UNL1        0.0000
     66 H           7.8238    4.4858    4.2876 H       1  UNL1        0.0000
     67 H           7.5548    4.7876    2.5790 H       1  UNL1        0.0000
     68 H           6.7191    5.7658    3.7771 H       1  UNL1        0.0000
     69 H           4.6262    3.1203    7.9508 H       1  UNL1        0.0000
     70 H           3.9851    1.6996    7.1062 H       1  UNL1        0.0000
     71 H           5.4236    1.5572    8.1140 H       1  UNL1        0.0000
     72 H           7.5717    2.3704    7.3764 H       1  UNL1        0.0000
     73 H           7.8137    3.1818    5.8395 H       1  UNL1        0.0000
     74 H           7.0033    4.0214    7.1704 H       1  UNL1        0.0000
@<TRIPOS>BOND
     1    36    12    1
     2    35    12    1
     3    12    37    1
     4    12     3    1
     5    56    20    1
     6    31    10    1
     7    59    21    1
     8    55    20    1
     9    32    10    1
    10    20    57    1
    11    20    17    1
    12    60    21    1
    13    10     3    1
    14    10     1    1
    15    39    13    1
    16    64    24    1
    17    21    17    1
    18    21    58    1
    19     3    13    1
    20     3     5    1
    21    28     6    1
    22    42    14    1
    23    67    25    1
    24    13    38    1
    25    13    40    1
    26    17     1    1
    27    17    48    1
    28    61    22    1
    29    43    14    1
    30    24    63    1
    31    24    22    1
    32    24    65    1
    33     1    16    1
    34    14    41    1
    35    14     4    1
    36     6     5    1
    37     6     7    2
    38    53    19    1
    39    54    19    1
    40    22    25    1
    41    22     2    1
    42     5     9    1
    43    25    68    1
    44    25    66    1
    45    19    16    1
    46    19    52    1
    47    16    47    1
    48    16    18    1
    49     7     4    1
    50     7     8    1
    51     9    30    1
    52     9     8    2
    53     4    11    1
    54     4    15    1
    55     2    11    1
    56     2    23    1
    57    50    18    1
    58    18    51    1
    59    18    49    1
    60     8    29    1
    61    62    23    1
    62    45    15    1
    63    11    34    1
    64    11    33    1
    65    73    27    1
    66    15    44    1
    67    15    46    1
    68    23    27    1
    69    23    26    1
    70    27    74    1
    71    27    72    1
    72    70    26    1
    73    26    69    1
    74    26    71    1
