@<TRIPOS>MOLECULE
1,2,5,6,7,8,9
 74 74 0 0 0
SMALL
GASTEIGER

@<TRIPOS>ATOM
      1 P          -0.7871    7.7411    7.7029 P.3     1  UNL1        0.0000
      2 P          -0.6359   13.1980    6.8985 P.3     1  UNL1        0.0000
      3 SI          2.2792    7.3716    7.6342 Si      1  UNL1        0.0000
      4 SI          2.2725   13.1671    7.9425 Si      1  UNL1        0.0000
      5 C           2.0458    9.1486    7.0952 C.2     1  UNL1        0.0000
      6 C           2.3401   10.2610    7.9096 C.3     1  UNL1        0.0000
      7 C           2.0857   11.4583    7.2051 C.2     1  UNL1        0.0000
      8 C           1.6043   11.0677    5.9165 C.2     1  UNL1        0.0000
      9 C           1.5744    9.6697    5.8564 C.2     1  UNL1        0.0000
     10 C           0.6264    6.8565    8.4868 C.3     1  UNL1        0.0000
     11 C           0.5287   13.9780    8.0959 C.3     1  UNL1        0.0000
     12 C           3.6653    7.2204    8.9376 C.3     1  UNL1        0.0000
     13 C           2.7669    6.2067    6.1997 C.3     1  UNL1        0.0000
     14 C           2.9624   13.0030    9.7150 C.3     1  UNL1        0.0000
     15 C           3.4336   14.2987    6.9287 C.3     1  UNL1        0.0000
     16 C          -2.1224    7.4993    9.0086 C.3     1  UNL1        0.0000
     17 C          -1.3624    6.5851    6.3160 C.3     1  UNL1        0.0000
     18 C          -2.3099   13.9060    7.4149 C.3     1  UNL1        0.0000
     19 C          -0.1019   14.1188    5.3336 C.3     1  UNL1        0.0000
     20 C          -3.2652    8.4747    8.7295 C.3     1  UNL1        0.0000
     21 C          -2.6532    6.0839    9.2108 C.3     1  UNL1        0.0000
     22 C          -0.8686    7.0919    4.9610 C.3     1  UNL1        0.0000
     23 C          -0.9768    5.1152    6.4572 C.3     1  UNL1        0.0000
     24 C          -3.3169   13.9195    6.2652 C.3     1  UNL1        0.0000
     25 C          -2.2855   15.2480    8.1420 C.3     1  UNL1        0.0000
     26 C          -0.7133   13.4622    4.0948 C.3     1  UNL1        0.0000
     27 C          -0.2948   15.6307    5.2908 C.3     1  UNL1        0.0000
     28 H           2.8088   10.2112    8.8803 H       1  UNL1        0.0000
     29 H           1.4512   11.7271    5.0707 H       1  UNL1        0.0000
     30 H           1.3685    9.0890    4.9650 H       1  UNL1        0.0000
     31 H           0.6581    7.2228    9.5163 H       1  UNL1        0.0000
     32 H           0.4631    5.7817    8.5209 H       1  UNL1        0.0000
     33 H           0.5598   15.0590    7.9643 H       1  UNL1        0.0000
     34 H           0.1304   13.7744    9.0915 H       1  UNL1        0.0000
     35 H           3.8898    6.1773    9.1351 H       1  UNL1        0.0000
     36 H           4.5785    7.6897    8.5878 H       1  UNL1        0.0000
     37 H           3.3969    7.6779    9.8830 H       1  UNL1        0.0000
     38 H           2.1149    6.2751    5.3363 H       1  UNL1        0.0000
     39 H           3.7715    6.4432    5.8649 H       1  UNL1        0.0000
     40 H           2.7702    5.1725    6.5303 H       1  UNL1        0.0000
     41 H           2.3422   12.3556   10.3290 H       1  UNL1        0.0000
     42 H           3.9652   12.5904    9.7047 H       1  UNL1        0.0000
     43 H           3.0138   13.9705   10.2035 H       1  UNL1        0.0000
     44 H           4.4542   13.9357    6.9858 H       1  UNL1        0.0000
     45 H           3.1659   14.3499    5.8786 H       1  UNL1        0.0000
     46 H           3.4232   15.3107    7.3206 H       1  UNL1        0.0000
     47 H          -1.6325    7.8072    9.9413 H       1  UNL1        0.0000
     48 H          -2.4561    6.6793    6.3254 H       1  UNL1        0.0000
     49 H          -2.6604   13.1520    8.1334 H       1  UNL1        0.0000
     50 H           0.9813   13.9325    5.3181 H       1  UNL1        0.0000
     51 H          -2.8853    9.5031    8.7292 H       1  UNL1        0.0000
     52 H          -3.7304    8.2741    7.7648 H       1  UNL1        0.0000
     53 H          -4.0304    8.3893    9.5002 H       1  UNL1        0.0000
     54 H          -3.3474    6.0820   10.0503 H       1  UNL1        0.0000
     55 H          -3.1906    5.7283    8.3352 H       1  UNL1        0.0000
     56 H          -1.8489    5.3918    9.4492 H       1  UNL1        0.0000
     57 H           0.2163    7.0392    4.9056 H       1  UNL1        0.0000
     58 H          -1.2752    6.4695    4.1651 H       1  UNL1        0.0000
     59 H          -1.1888    8.1142    4.7768 H       1  UNL1        0.0000
     60 H          -1.2897    4.6878    7.4040 H       1  UNL1        0.0000
     61 H          -1.4566    4.5459    5.6617 H       1  UNL1        0.0000
     62 H           0.0984    4.9913    6.3535 H       1  UNL1        0.0000
     63 H          -4.3207   14.0532    6.6660 H       1  UNL1        0.0000
     64 H          -3.1260   14.7374    5.5756 H       1  UNL1        0.0000
     65 H          -3.2968   12.9790    5.7195 H       1  UNL1        0.0000
     66 H          -1.7118   15.1888    9.0634 H       1  UNL1        0.0000
     67 H          -1.8802   16.0426    7.5222 H       1  UNL1        0.0000
     68 H          -3.3057   15.5189    8.4111 H       1  UNL1        0.0000
     69 H          -1.7518   13.7528    3.9699 H       1  UNL1        0.0000
     70 H          -0.1698   13.7648    3.2000 H       1  UNL1        0.0000
     71 H          -0.6819   12.3747    4.1650 H       1  UNL1        0.0000
     72 H           0.1590   16.1197    6.1494 H       1  UNL1        0.0000
     73 H           0.1839   16.0261    4.3948 H       1  UNL1        0.0000
     74 H          -1.3465   15.8974    5.2479 H       1  UNL1        0.0000
@<TRIPOS>BOND
     1    70    26    1
     2    69    26    1
     3    26    71    1
     4    26    19    1
     5    58    22    1
     6    73    27    1
     7    59    22    1
     8    57    22    1
     9    22    17    1
    10    30     9    1
    11    29     8    1
    12    74    27    1
    13    27    19    1
    14    27    72    1
    15    50    19    1
    16    19     2    1
    17    38    13    1
    18    64    24    1
    19    61    23    1
    20    65    24    1
    21     9     8    1
    22     9     5    2
    23    39    13    1
    24    45    15    1
    25     8     7    2
    26    13    40    1
    27    13     3    1
    28    24    63    1
    29    24    18    1
    30    17    48    1
    31    17    23    1
    32    17     1    1
    33    62    23    1
    34    23    60    1
    35     2    18    1
    36     2    11    1
    37    15    44    1
    38    15    46    1
    39    15     4    1
    40     5     3    1
    41     5     6    1
    42     7     6    1
    43     7     4    1
    44    18    49    1
    45    18    25    1
    46    67    25    1
    47     3    10    1
    48     3    12    1
    49     1    10    1
    50     1    16    1
    51    52    20    1
    52     6    28    1
    53     4    11    1
    54     4    14    1
    55    33    11    1
    56    11    34    1
    57    25    68    1
    58    25    66    1
    59    55    21    1
    60    10    32    1
    61    10    31    1
    62    36    12    1
    63    51    20    1
    64    20    16    1
    65    20    53    1
    66    12    35    1
    67    12    37    1
    68    16    21    1
    69    16    47    1
    70    21    56    1
    71    21    54    1
    72    42    14    1
    73    14    43    1
    74    14    41    1
