@<TRIPOS>MOLECULE
1,2,5,6,7,8,9
 50 50 0 0 0
SMALL
GASTEIGER

@<TRIPOS>ATOM
      1 P           4.1435    2.9928    4.7451 P.3     1  UNL1        0.0000
      2 P          -0.1122    0.0739    3.6235 P.3     1  UNL1        0.0000
      3 SI          2.6432    5.6463    4.8986 Si      1  UNL1        0.0000
      4 SI         -2.0782    2.4044    3.5726 Si      1  UNL1        0.0000
      5 C           1.4572    4.4936    4.0267 C.2     1  UNL1        0.0000
      6 C           0.1722    4.0964    4.4545 C.3     1  UNL1        0.0000
      7 C          -0.3959    3.2172    3.5081 C.2     1  UNL1        0.0000
      8 C           0.5791    3.0437    2.4794 C.2     1  UNL1        0.0000
      9 C           1.7003    3.8173    2.7926 C.2     1  UNL1        0.0000
     10 C           4.1154    4.6160    5.6100 C.3     1  UNL1        0.0000
     11 C          -1.8525    0.5338    4.0002 C.3     1  UNL1        0.0000
     12 C           3.3637    6.9509    3.7000 C.3     1  UNL1        0.0000
     13 C           1.7795    6.5313    6.3514 C.3     1  UNL1        0.0000
     14 C          -2.9785    2.5203    1.8892 C.3     1  UNL1        0.0000
     15 C          -3.1632    3.1992    4.9253 C.3     1  UNL1        0.0000
     16 C           5.2660    3.3807    3.3261 C.3     1  UNL1        0.0000
     17 C           5.3657    2.0508    5.7566 C.3     1  UNL1        0.0000
     18 C          -0.2661   -0.4524    1.8570 C.3     1  UNL1        0.0000
     19 C          -0.0034   -1.6130    4.3625 C.3     1  UNL1        0.0000
     20 H          -0.3371    4.4816    5.3272 H       1  UNL1        0.0000
     21 H           0.4210    2.5214    1.5411 H       1  UNL1        0.0000
     22 H           2.5460    3.9886    2.1343 H       1  UNL1        0.0000
     23 H           3.9446    4.4052    6.6669 H       1  UNL1        0.0000
     24 H           5.0810    5.1141    5.5133 H       1  UNL1        0.0000
     25 H          -2.5427   -0.1217    3.4674 H       1  UNL1        0.0000
     26 H          -1.9926    0.3786    5.0713 H       1  UNL1        0.0000
     27 H           4.0653    7.6011    4.2129 H       1  UNL1        0.0000
     28 H           3.8854    6.5006    2.8617 H       1  UNL1        0.0000
     29 H           2.5734    7.5745    3.2962 H       1  UNL1        0.0000
     30 H           2.4672    7.1979    6.8609 H       1  UNL1        0.0000
     31 H           0.9478    7.1283    5.9952 H       1  UNL1        0.0000
     32 H           1.3943    5.8309    7.0854 H       1  UNL1        0.0000
     33 H          -3.1436    3.5570    1.6161 H       1  UNL1        0.0000
     34 H          -2.4167    2.0559    1.0851 H       1  UNL1        0.0000
     35 H          -3.9480    2.0345    1.9356 H       1  UNL1        0.0000
     36 H          -2.7169    3.1117    5.9105 H       1  UNL1        0.0000
     37 H          -3.3147    4.2533    4.7228 H       1  UNL1        0.0000
     38 H          -4.1398    2.7286    4.9625 H       1  UNL1        0.0000
     39 H           6.2353    3.7229    3.6885 H       1  UNL1        0.0000
     40 H           5.4005    2.4745    2.7340 H       1  UNL1        0.0000
     41 H           4.8272    4.1536    2.6983 H       1  UNL1        0.0000
     42 H           4.9275    1.7967    6.7207 H       1  UNL1        0.0000
     43 H           5.6197    1.1282    5.2338 H       1  UNL1        0.0000
     44 H           6.2672    2.6448    5.9120 H       1  UNL1        0.0000
     45 H          -0.5725    0.3885    1.2381 H       1  UNL1        0.0000
     46 H           0.7075   -0.8079    1.5170 H       1  UNL1        0.0000
     47 H          -0.9985   -1.2537    1.7593 H       1  UNL1        0.0000
     48 H          -0.8352   -2.2300    4.0206 H       1  UNL1        0.0000
     49 H           0.9398   -2.0706    4.0627 H       1  UNL1        0.0000
     50 H          -0.0281   -1.5409    5.4489 H       1  UNL1        0.0000
@<TRIPOS>BOND
     1    34    14    1
     2    45    18    1
     3    46    18    1
     4    21     8    1
     5    33    14    1
     6    47    18    1
     7    18     2    1
     8    14    35    1
     9    14     4    1
    10    22     9    1
    11     8     9    1
    12     8     7    2
    13    41    16    1
    14    40    16    1
    15     9     5    2
    16    28    12    1
    17    29    12    1
    18    16    39    1
    19    16     1    1
    20    25    11    1
    21     7     4    1
    22     7     6    1
    23     4    11    1
    24     4    15    1
    25     2    11    1
    26     2    19    1
    27    12    27    1
    28    12     3    1
    29    11    26    1
    30    48    19    1
    31     5     6    1
    32     5     3    1
    33    49    19    1
    34    19    50    1
    35     6    20    1
    36    37    15    1
    37     1    10    1
    38     1    17    1
    39     3    10    1
    40     3    13    1
    41    15    38    1
    42    15    36    1
    43    43    17    1
    44    24    10    1
    45    10    23    1
    46    17    44    1
    47    17    42    1
    48    31    13    1
    49    13    30    1
    50    13    32    1
