@<TRIPOS>MOLECULE
1,2,5,6,7,8,9
 74 74 0 0 0
SMALL
GASTEIGER

@<TRIPOS>ATOM
      1 P           0.9051    5.4195    2.3779 P.3     1  UNL1        0.0000
      2 P           4.7833    2.3347    4.6294 P.3     1  UNL1        0.0000
      3 SI          2.0990    8.0518    3.6618 Si      1  UNL1        0.0000
      4 SI          6.5144    4.7877    5.6243 Si      1  UNL1        0.0000
      5 C           3.5932    6.9357    3.6928 C.3     1  UNL1        0.0000
      6 C           4.3372    6.5750    4.8240 C.2     1  UNL1        0.0000
      7 C           5.3460    5.6661    4.4693 C.2     1  UNL1        0.0000
      8 C           5.2494    5.4729    3.0634 C.3     1  UNL1        0.0000
      9 C           4.1721    6.2512    2.5821 C.3     1  UNL1        0.0000
     10 C           0.7841    7.2592    2.4853 C.3     1  UNL1        0.0000
     11 C           1.3676    8.2396    5.4099 C.3     1  UNL1        0.0000
     12 C           2.4895    9.7662    2.9167 C.3     1  UNL1        0.0000
     13 C           5.7857    3.0345    5.9991 C.3     1  UNL1        0.0000
     14 C           8.2579    4.6591    4.8559 C.3     1  UNL1        0.0000
     15 C           6.6262    5.6741    7.3056 C.3     1  UNL1        0.0000
     16 C           0.6272    5.1463    0.5440 C.3     1  UNL1        0.0000
     17 C           1.8034    5.6606   -0.2829 C.3     1  UNL1        0.0000
     18 C           0.4043    3.6652    0.2514 C.3     1  UNL1        0.0000
     19 C          -0.7384    4.8514    3.0882 C.3     1  UNL1        0.0000
     20 C          -0.8220    5.2635    4.5562 C.3     1  UNL1        0.0000
     21 C          -1.9713    5.3373    2.3289 C.3     1  UNL1        0.0000
     22 C           3.9781    0.8273    5.4194 C.3     1  UNL1        0.0000
     23 C           2.9196    1.2699    6.4286 C.3     1  UNL1        0.0000
     24 C           4.9371   -0.1563    6.0858 C.3     1  UNL1        0.0000
     25 C           6.0457    1.6409    3.4184 C.3     1  UNL1        0.0000
     26 C           5.3974    0.5401    2.5782 C.3     1  UNL1        0.0000
     27 C           7.3872    1.1877    3.9869 C.3     1  UNL1        0.0000
     28 H           4.1605    6.9420    5.8194 H       1  UNL1        0.0000
     29 H           5.9812    4.9716    2.4439 H       1  UNL1        0.0000
     30 H           3.9650    6.4526    1.5390 H       1  UNL1        0.0000
     31 H           0.9086    7.6652    1.4824 H       1  UNL1        0.0000
     32 H          -0.2209    7.5231    2.8101 H       1  UNL1        0.0000
     33 H           2.0175    8.8560    6.0220 H       1  UNL1        0.0000
     34 H           0.3912    8.7147    5.3939 H       1  UNL1        0.0000
     35 H           1.2686    7.2777    5.9034 H       1  UNL1        0.0000
     36 H           3.1916   10.3035    3.5442 H       1  UNL1        0.0000
     37 H           2.9302    9.6891    1.9278 H       1  UNL1        0.0000
     38 H           1.5928   10.3718    2.8337 H       1  UNL1        0.0000
     39 H           5.0814    3.1582    6.8247 H       1  UNL1        0.0000
     40 H           6.5416    2.3155    6.3117 H       1  UNL1        0.0000
     41 H           8.9205    4.0485    5.4617 H       1  UNL1        0.0000
     42 H           8.2446    4.2483    3.8518 H       1  UNL1        0.0000
     43 H           8.6987    5.6485    4.7933 H       1  UNL1        0.0000
     44 H           7.2938    5.1519    7.9836 H       1  UNL1        0.0000
     45 H           7.0047    6.6829    7.1840 H       1  UNL1        0.0000
     46 H           5.6547    5.7413    7.7839 H       1  UNL1        0.0000
     47 H          -0.2672    5.7255    0.2787 H       1  UNL1        0.0000
     48 H           2.6864    5.0503   -0.1054 H       1  UNL1        0.0000
     49 H           1.5602    5.5922   -1.3422 H       1  UNL1        0.0000
     50 H           2.0358    6.7016   -0.0624 H       1  UNL1        0.0000
     51 H          -0.4593    3.2699    0.7798 H       1  UNL1        0.0000
     52 H           0.2499    3.5176   -0.8163 H       1  UNL1        0.0000
     53 H           1.2771    3.0873    0.5499 H       1  UNL1        0.0000
     54 H          -0.7003    3.7565    3.0483 H       1  UNL1        0.0000
     55 H           0.0437    4.9047    5.1087 H       1  UNL1        0.0000
     56 H          -0.8811    6.3447    4.6615 H       1  UNL1        0.0000
     57 H          -1.7107    4.8300    5.0110 H       1  UNL1        0.0000
     58 H          -1.9791    6.4207    2.2237 H       1  UNL1        0.0000
     59 H          -2.0460    4.8911    1.3413 H       1  UNL1        0.0000
     60 H          -2.8622    5.0537    2.8870 H       1  UNL1        0.0000
     61 H           3.4592    0.3262    4.5928 H       1  UNL1        0.0000
     62 H           3.3669    1.7881    7.2746 H       1  UNL1        0.0000
     63 H           2.1864    1.9261    5.9668 H       1  UNL1        0.0000
     64 H           2.3921    0.3970    6.8091 H       1  UNL1        0.0000
     65 H           4.3570   -0.9448    6.5634 H       1  UNL1        0.0000
     66 H           5.6041   -0.6287    5.3710 H       1  UNL1        0.0000
     67 H           5.5294    0.3311    6.8568 H       1  UNL1        0.0000
     68 H           6.2447    2.4890    2.7470 H       1  UNL1        0.0000
     69 H           4.4109    0.8482    2.2340 H       1  UNL1        0.0000
     70 H           6.0080    0.3365    1.7004 H       1  UNL1        0.0000
     71 H           5.2970   -0.3833    3.1428 H       1  UNL1        0.0000
     72 H           7.2802    0.3543    4.6742 H       1  UNL1        0.0000
     73 H           8.0217    0.8601    3.1642 H       1  UNL1        0.0000
     74 H           7.8956    1.9981    4.4993 H       1  UNL1        0.0000
@<TRIPOS>BOND
     1    49    17    1
     2    52    18    1
     3    17    48    1
     4    17    50    1
     5    17    16    1
     6    18    16    1
     7    18    53    1
     8    18    51    1
     9    47    16    1
    10    16     1    1
    11    59    21    1
    12    31    10    1
    13    30     9    1
    14    70    26    1
    15    37    12    1
    16    58    21    1
    17    69    26    1
    18    21    60    1
    19    21    19    1
    20     1    10    1
    21     1    19    1
    22    29     8    1
    23    10    32    1
    24    10     3    1
    25    26    71    1
    26    26    25    1
    27     9     8    1
    28     9     5    1
    29    68    25    1
    30    38    12    1
    31    12    36    1
    32    12     3    1
    33    54    19    1
    34     8     7    1
    35    19    20    1
    36    73    27    1
    37    25    27    1
    38    25     2    1
    39     3     5    1
    40     3    11    1
    41     5     6    1
    42    42    14    1
    43    27    74    1
    44    27    72    1
    45     7     6    2
    46     7     4    1
    47    20    56    1
    48    20    57    1
    49    20    55    1
    50    61    22    1
    51     2    22    1
    52     2    13    1
    53    43    14    1
    54     6    28    1
    55    14    41    1
    56    14     4    1
    57    66    24    1
    58    34    11    1
    59    11    35    1
    60    11    33    1
    61    22    24    1
    62    22    23    1
    63     4    13    1
    64     4    15    1
    65    63    23    1
    66    13    40    1
    67    13    39    1
    68    24    65    1
    69    24    67    1
    70    23    64    1
    71    23    62    1
    72    45    15    1
    73    15    46    1
    74    15    44    1
