@<TRIPOS>MOLECULE
1,3
 44 45 0 0 0
SMALL
GASTEIGER

@<TRIPOS>ATOM
      1 C           6.0953    7.7293    3.6228 C.3     1  UNL1        0.0000
      2 O           6.6498    7.9225    2.6313 O.3     1  UNL1        0.0000
      3 B           4.1448    8.9965    4.8874 B       1  UNL1        0.0000
      4 CL          3.9624   10.0711    6.1899 Cl      1  UNL1        0.0000
      5 SI          2.9396    9.2278    3.3464 Si      1  UNL1        0.0000
      6 SI          2.5063    7.2726    2.0768 Si      1  UNL1        0.0000
      7 C           4.0361    6.2071    1.6521 C.3     1  UNL1        0.0000
      8 H           4.6168    5.9735    2.5387 H       1  UNL1        0.0000
      9 H           4.6932    6.7420    0.9748 H       1  UNL1        0.0000
     10 H           3.7672    5.2696    1.1721 H       1  UNL1        0.0000
     11 C           1.7069    7.7431    0.4023 C.3     1  UNL1        0.0000
     12 H           0.8119    8.3379    0.5504 H       1  UNL1        0.0000
     13 H           1.4247    6.8686   -0.1775 H       1  UNL1        0.0000
     14 H           2.3881    8.3293   -0.2056 H       1  UNL1        0.0000
     15 C           1.2335    6.1380    2.9584 C.3     1  UNL1        0.0000
     16 H           1.5112    5.9425    3.9890 H       1  UNL1        0.0000
     17 H           1.1235    5.1774    2.4620 H       1  UNL1        0.0000
     18 H           0.2546    6.6064    2.9746 H       1  UNL1        0.0000
     19 SI          0.8744   10.0628    4.2090 Si      1  UNL1        0.0000
     20 C           0.2869    9.0012    5.6928 C.3     1  UNL1        0.0000
     21 H          -0.6794    9.3247    6.0701 H       1  UNL1        0.0000
     22 H           0.9925    9.0657    6.5154 H       1  UNL1        0.0000
     23 H           0.1933    7.9558    5.4155 H       1  UNL1        0.0000
     24 C          -0.5160   10.0205    2.8961 C.3     1  UNL1        0.0000
     25 H          -0.7167    9.0057    2.5690 H       1  UNL1        0.0000
     26 H          -0.2412   10.5983    2.0200 H       1  UNL1        0.0000
     27 H          -1.4468   10.4300    3.2783 H       1  UNL1        0.0000
     28 C           0.9999   11.8636    4.8444 C.3     1  UNL1        0.0000
     29 H           1.7450   11.9457    5.6287 H       1  UNL1        0.0000
     30 H           0.0570   12.2200    5.2512 H       1  UNL1        0.0000
     31 H           1.2886   12.5433    4.0490 H       1  UNL1        0.0000
     32 SI          3.9785   10.8844    1.9807 Si      1  UNL1        0.0000
     33 C           5.1171   10.1522    0.6331 C.3     1  UNL1        0.0000
     34 H           5.9055    9.5493    1.0691 H       1  UNL1        0.0000
     35 H           5.5912   10.9302    0.0404 H       1  UNL1        0.0000
     36 H           4.5603    9.5178   -0.0490 H       1  UNL1        0.0000
     37 C           2.6650   11.9374    1.0690 C.3     1  UNL1        0.0000
     38 H           2.0444   11.3120    0.4354 H       1  UNL1        0.0000
     39 H           3.1212   12.6923    0.4345 H       1  UNL1        0.0000
     40 H           2.0087   12.4496    1.7645 H       1  UNL1        0.0000
     41 C           5.0364   12.0422    3.0735 C.3     1  UNL1        0.0000
     42 H           5.8406   11.4875    3.5492 H       1  UNL1        0.0000
     43 H           4.4385   12.4889    3.8619 H       1  UNL1        0.0000
     44 H           5.4884   12.8524    2.5079 H       1  UNL1        0.0000
@<TRIPOS>BOND
     1    14    11    1
     2    13    11    1
     3    36    33    1
     4    35    33    1
     5    11    12    1
     6    11     6    1
     7    39    37    1
     8    38    37    1
     9    33    34    1
    10    33    32    1
    11     9     7    1
    12    37    40    1
    13    37    32    1
    14    10     7    1
    15     7     6    1
    16     7     8    1
    17    32    41    1
    18    32     5    1
    19    26    24    1
    20     6    15    1
    21     6     5    1
    22    17    15    1
    23    44    41    1
    24    25    24    1
    25     2     1    1
    26    24    27    1
    27    24    19    1
    28    15    18    1
    29    15    16    1
    30    41    42    1
    31    41    43    1
    32     5    19    1
    33     5     3    1
    34    31    28    1
    35    19    28    1
    36    19    20    1
    37    28    30    1
    38    28    29    1
    39     3     4    1
    40    23    20    1
    41    20    21    1
    42    20    22    1
    43     5     4    0
    44     5     1    0
    45     5    11    0
