@<TRIPOS>MOLECULE
2,3,4,6,8,10
 36 37 0 0 0
SMALL
GASTEIGER

@<TRIPOS>ATOM
      1 SI          4.0914    4.5207   11.2130 Si      1  UNL1        0.0000
      2 N           2.5558    3.8009   10.8628 N.pl3   1  UNL1        0.0000
      3 C           4.9953    2.8701   10.9984 C.3     1  UNL1        0.0000
      4 C           4.9472    1.8933   12.0211 C.2     1  UNL1        0.0000
      5 H           5.0252    2.1048   13.0804 H       1  UNL1        0.0000
      6 C           4.9423    0.6163   11.4411 C.2     1  UNL1        0.0000
      7 H           5.0296   -0.3282   11.9654 H       1  UNL1        0.0000
      8 C           4.9723    0.7787   10.0404 C.2     1  UNL1        0.0000
      9 H           5.1245   -0.0232    9.3250 H       1  UNL1        0.0000
     10 C           4.9906    2.1597    9.7658 C.2     1  UNL1        0.0000
     11 H           5.1479    2.6042    8.7878 H       1  UNL1        0.0000
     12 C           4.2495    5.2035   13.0041 C.3     1  UNL1        0.0000
     13 H           3.8917    4.5018   13.7523 H       1  UNL1        0.0000
     14 H           3.6858    6.1248   13.1159 H       1  UNL1        0.0000
     15 H           5.2859    5.4279   13.2350 H       1  UNL1        0.0000
     16 C           4.6953    5.9461   10.0821 C.3     1  UNL1        0.0000
     17 H           5.1377    5.5912    9.1573 H       1  UNL1        0.0000
     18 H           5.4406    6.5471   10.5917 H       1  UNL1        0.0000
     19 H           3.8652    6.5988    9.8312 H       1  UNL1        0.0000
     20 C           1.4257    4.4090   10.3218 C.ar    1  UNL1        0.0000
     21 C           0.3495    4.7828   11.1485 C.ar    1  UNL1        0.0000
     22 C          -0.7629    5.4046   10.6065 C.ar    1  UNL1        0.0000
     23 H          -1.5790    5.6885   11.2566 H       1  UNL1        0.0000
     24 C          -0.8424    5.6662    9.2507 C.ar    1  UNL1        0.0000
     25 H          -1.7120    6.1558    8.8383 H       1  UNL1        0.0000
     26 C           0.2019    5.2863    8.4285 C.ar    1  UNL1        0.0000
     27 H           0.1430    5.4765    7.3652 H       1  UNL1        0.0000
     28 C           1.3311    4.6649    8.9400 C.ar    1  UNL1        0.0000
     29 C           0.4094    4.4729   12.6129 C.3     1  UNL1        0.0000
     30 H           1.3308    4.8616   13.0442 H       1  UNL1        0.0000
     31 H           0.4014    3.3894   12.7483 H       1  UNL1        0.0000
     32 H          -0.4400    4.9051   13.1366 H       1  UNL1        0.0000
     33 C           2.4342    4.2486    8.0124 C.3     1  UNL1        0.0000
     34 H           2.8838    3.3202    8.3755 H       1  UNL1        0.0000
     35 H           3.2077    5.0140    7.9689 H       1  UNL1        0.0000
     36 H           2.0480    4.1019    7.0051 H       1  UNL1        0.0000
@<TRIPOS>BOND
     1    36    33    1
     2    27    26    1
     3    35    33    1
     4    33    34    1
     5    33    28    1
     6    26    28   ar
     7    26    24   ar
     8    11    10    1
     9    25    24    1
    10    28    20   ar
    11    17    16    1
    12    24    22   ar
    13     9     8    1
    14    10     8    2
    15    10     3    1
    16    19    16    1
    17     8     6    1
    18    16    18    1
    19    16     1    1
    20    20     2    1
    21    20    21   ar
    22    22    21   ar
    23    22    23    1
    24     2     1    1
    25     3     1    1
    26     3     4    1
    27    21    29    1
    28     1    12    1
    29     6     7    1
    30     6     4    2
    31     4     5    1
    32    29    31    1
    33    29    30    1
    34    29    32    1
    35    12    14    1
    36    12    15    1
    37    12    13    1
