@<TRIPOS>MOLECULE
5,6,15,17,31
 44 46 0 0 0
SMALL
GASTEIGER

@<TRIPOS>ATOM
      1 S          20.0612    1.0870    3.1271 S.2     1  UNL1        0.0000
      2 C          21.0391   -0.2931    2.6158 C.ar    1  UNL1        0.0000
      3 C          22.1922    0.0804    2.0074 C.ar    1  UNL1        0.0000
      4 H          22.9150   -0.6285    1.6371 H       1  UNL1        0.0000
      5 C          22.3395    1.4918    1.9159 C.ar    1  UNL1        0.0000
      6 C          23.2927    2.4738    1.5044 C.ar    1  UNL1        0.0000
      7 C          24.5687    2.3865    0.9375 C.ar    1  UNL1        0.0000
      8 H          24.9943    1.4197    0.7005 H       1  UNL1        0.0000
      9 C          25.2770    3.5443    0.7059 C.ar    1  UNL1        0.0000
     10 H          26.2656    3.4921    0.2730 H       1  UNL1        0.0000
     11 C          24.7422    4.7976    1.0372 C.ar    1  UNL1        0.0000
     12 H          25.3341    5.6825    0.8500 H       1  UNL1        0.0000
     13 C          23.4954    4.9196    1.6070 C.ar    1  UNL1        0.0000
     14 H          23.1151    5.8908    1.8957 H       1  UNL1        0.0000
     15 C          22.7374    3.7643    1.8608 C.ar    1  UNL1        0.0000
     16 C          21.4572    3.5940    2.4986 C.3     1  UNL1        0.0000
     17 C          21.2567    2.1921    2.5074 C.ar    1  UNL1        0.0000
     18 C          20.5330   -1.6682    2.8729 C.3     1  UNL1        0.0000
     19 H          19.5807   -1.8302    2.3666 H       1  UNL1        0.0000
     20 H          20.3724   -1.8271    3.9393 H       1  UNL1        0.0000
     21 H          21.2504   -2.4022    2.5126 H       1  UNL1        0.0000
     22 SI         19.9825    4.7680    2.3380 Si      1  UNL1        0.0000
     23 C          18.6752    4.3389    3.6763 C.3     1  UNL1        0.0000
     24 H          17.7877    4.9561    3.5808 H       1  UNL1        0.0000
     25 H          19.0779    4.5043    4.6706 H       1  UNL1        0.0000
     26 H          18.3680    3.2989    3.6168 H       1  UNL1        0.0000
     27 C          20.4279    6.6227    2.5334 C.3     1  UNL1        0.0000
     28 H          20.9302    7.0075    1.6507 H       1  UNL1        0.0000
     29 H          21.0761    6.7832    3.3884 H       1  UNL1        0.0000
     30 H          19.5334    7.2157    2.6891 H       1  UNL1        0.0000
     31 N          19.6594    4.2704    0.7015 N.3     1  UNL1        0.0000
     32 C          18.4443    4.5116   -0.0506 C.3     1  UNL1        0.0000
     33 C          17.4487    3.3721    0.2334 C.3     1  UNL1        0.0000
     34 H          17.9199    2.4144    0.0065 H       1  UNL1        0.0000
     35 H          16.5512    3.4834   -0.3709 H       1  UNL1        0.0000
     36 H          17.1699    3.3816    1.2844 H       1  UNL1        0.0000
     37 C          17.8032    5.8532    0.3315 C.3     1  UNL1        0.0000
     38 H          17.4970    5.8460    1.3729 H       1  UNL1        0.0000
     39 H          16.9283    6.0411   -0.2862 H       1  UNL1        0.0000
     40 H          18.5185    6.6579    0.1837 H       1  UNL1        0.0000
     41 C          18.7616    4.5494   -1.5557 C.3     1  UNL1        0.0000
     42 H          19.4958    5.3300   -1.7546 H       1  UNL1        0.0000
     43 H          17.8585    4.7636   -2.1242 H       1  UNL1        0.0000
     44 H          19.1662    3.5882   -1.8781 H       1  UNL1        0.0000
@<TRIPOS>BOND
     1    43    41    1
     2    44    41    1
     3    42    41    1
     4    41    32    1
     5    35    33    1
     6    39    37    1
     7    32    33    1
     8    32    37    1
     9    32    31    1
    10    34    33    1
    11    40    37    1
    12    33    36    1
    13    10     9    1
    14    37    38    1
    15     8     7    1
    16    31    22    1
    17     9     7   ar
    18     9    11   ar
    19    12    11    1
    20     7     6   ar
    21    11    13   ar
    22     6    15   ar
    23     6     5    1
    24    13    15   ar
    25    13    14    1
    26     4     3    1
    27    28    27    1
    28    15    16    1
    29     5     3   ar
    30     5    17   ar
    31     3     2   ar
    32    22    16    1
    33    22    27    1
    34    22    23    1
    35    19    18    1
    36    16    17    1
    37    17     1   ar
    38    21    18    1
    39    27    30    1
    40    27    29    1
    41     2    18    1
    42     2     1   ar
    43    18    20    1
    44    24    23    1
    45    26    23    1
    46    23    25    1
