@<TRIPOS>MOLECULE
2,3,4,5,6,7
 41 41 0 0 0
SMALL
GASTEIGER

@<TRIPOS>ATOM
      1 SI          0.5941    0.1646    3.0355 Si      1  UNL1        0.0000
      2 N           1.8843   -0.8131    3.6313 N.3     1  UNL1        0.0000
      3 C           1.4412    1.8118    3.5203 C.3     1  UNL1        0.0000
      4 C           1.4968    2.3111    4.8610 C.2     1  UNL1        0.0000
      5 C           2.7210    3.0060    5.0393 C.2     1  UNL1        0.0000
      6 C           3.4484    2.9438    3.8120 C.2     1  UNL1        0.0000
      7 C           2.6676    2.2025    2.8872 C.2     1  UNL1        0.0000
      8 C           0.3601    2.3277    5.8446 C.3     1  UNL1        0.0000
      9 H           0.7181    2.3626    6.8733 H       1  UNL1        0.0000
     10 H          -0.2781    1.4568    5.7299 H       1  UNL1        0.0000
     11 H          -0.2547    3.2170    5.6806 H       1  UNL1        0.0000
     12 C           3.1150    3.8246    6.2383 C.3     1  UNL1        0.0000
     13 H           2.7939    4.8618    6.1149 H       1  UNL1        0.0000
     14 H           4.1971    3.8277    6.3750 H       1  UNL1        0.0000
     15 H           2.6522    3.4381    7.1458 H       1  UNL1        0.0000
     16 C           4.7068    3.7190    3.5288 C.3     1  UNL1        0.0000
     17 H           5.2260    3.3296    2.6546 H       1  UNL1        0.0000
     18 H           5.3909    3.6854    4.3781 H       1  UNL1        0.0000
     19 H           4.4677    4.7685    3.3399 H       1  UNL1        0.0000
     20 C           3.0252    1.9174    1.4534 C.3     1  UNL1        0.0000
     21 H           2.2959    2.3750    0.7834 H       1  UNL1        0.0000
     22 H           3.0343    0.8420    1.2566 H       1  UNL1        0.0000
     23 H           4.0075    2.3168    1.2029 H       1  UNL1        0.0000
     24 C          -1.1294   -0.0980    3.8598 C.3     1  UNL1        0.0000
     25 H          -1.6858   -0.8581    3.3201 H       1  UNL1        0.0000
     26 H          -1.7252    0.8081    3.8371 H       1  UNL1        0.0000
     27 H          -1.0524   -0.4264    4.8918 H       1  UNL1        0.0000
     28 C           0.1522    0.1428    1.1597 C.3     1  UNL1        0.0000
     29 H           1.0068   -0.0574    0.5236 H       1  UNL1        0.0000
     30 H          -0.2721    1.0929    0.8516 H       1  UNL1        0.0000
     31 H          -0.5908   -0.6215    0.9548 H       1  UNL1        0.0000
     32 C           1.9918   -2.2563    3.4839 C.3     1  UNL1        0.0000
     33 H           2.9676   -2.5695    3.9072 H       1  UNL1        0.0000
     34 C           1.9495   -2.6919    2.0103 C.3     1  UNL1        0.0000
     35 H           0.9444   -2.5551    1.6218 H       1  UNL1        0.0000
     36 H           2.2263   -3.7395    1.9139 H       1  UNL1        0.0000
     37 H           2.6305   -2.0909    1.4126 H       1  UNL1        0.0000
     38 C           0.8971   -3.0271    4.2399 C.3     1  UNL1        0.0000
     39 H           0.9409   -2.8286    5.3082 H       1  UNL1        0.0000
     40 H           1.0211   -4.0968    4.0850 H       1  UNL1        0.0000
     41 H          -0.0794   -2.7282    3.8696 H       1  UNL1        0.0000
@<TRIPOS>BOND
     1    29    28    1
     2    21    20    1
     3    30    28    1
     4    31    28    1
     5    28     1    1
     6    23    20    1
     7    22    20    1
     8    37    34    1
     9    20     7    1
    10    35    34    1
    11    36    34    1
    12    34    32    1
    13    17    16    1
    14     7     3    1
    15     7     6    2
    16     1     3    1
    17     1     2    1
    18     1    24    1
    19    25    24    1
    20    19    16    1
    21    32     2    1
    22    32    33    1
    23    32    38    1
    24     3     4    1
    25    16     6    1
    26    16    18    1
    27     6     5    1
    28    26    24    1
    29    24    27    1
    30    41    38    1
    31    40    38    1
    32    38    39    1
    33     4     5    2
    34     4     8    1
    35     5    12    1
    36    11     8    1
    37    10     8    1
    38     8     9    1
    39    13    12    1
    40    12    14    1
    41    12    15    1
