@<TRIPOS>MOLECULE
2,3,4,6,8,17
 38 39 0 0 0
SMALL
GASTEIGER

@<TRIPOS>ATOM
      1 SI          3.4589    8.8488    9.3036 Si      1  UNL1        0.0000
      2 N           2.0076    8.1830    8.6348 N.3     1  UNL1        0.0000
      3 C           3.5992   10.1277    7.8961 C.3     1  UNL1        0.0000
      4 C           4.1491    9.7839    6.6304 C.2     1  UNL1        0.0000
      5 H           5.0033    9.1284    6.4891 H       1  UNL1        0.0000
      6 C           3.5050   10.4866    5.5939 C.2     1  UNL1        0.0000
      7 H           3.8065   10.5067    4.5521 H       1  UNL1        0.0000
      8 C           2.5091   11.3171    6.1908 C.3     1  UNL1        0.0000
      9 C           1.5706   12.2244    5.6597 C.2     1  UNL1        0.0000
     10 H           1.5621   12.4407    4.5984 H       1  UNL1        0.0000
     11 C           0.6752   12.8244    6.5095 C.2     1  UNL1        0.0000
     12 H          -0.0535   13.5182    6.1181 H       1  UNL1        0.0000
     13 C           0.6736   12.5463    7.8888 C.2     1  UNL1        0.0000
     14 H          -0.0651   13.0277    8.5126 H       1  UNL1        0.0000
     15 C           1.5861   11.6859    8.4504 C.2     1  UNL1        0.0000
     16 H           1.5982   11.5072    9.5184 H       1  UNL1        0.0000
     17 C           2.5515   11.0749    7.6229 C.3     1  UNL1        0.0000
     18 C           5.0454    7.7680    9.2843 C.3     1  UNL1        0.0000
     19 H           5.0311    7.0340   10.0833 H       1  UNL1        0.0000
     20 H           5.9307    8.3788    9.4271 H       1  UNL1        0.0000
     21 H           5.1555    7.2346    8.3439 H       1  UNL1        0.0000
     22 C           3.2809    9.5996   11.0579 C.3     1  UNL1        0.0000
     23 H           3.5923    8.8898   11.8166 H       1  UNL1        0.0000
     24 H           2.2551    9.8796   11.2738 H       1  UNL1        0.0000
     25 H           3.8992   10.4839   11.1674 H       1  UNL1        0.0000
     26 C           1.3918    6.8915    8.8843 C.3     1  UNL1        0.0000
     27 C           1.1208    6.6980   10.3824 C.3     1  UNL1        0.0000
     28 H           2.0574    6.7202   10.9324 H       1  UNL1        0.0000
     29 H           0.6269    5.7469   10.5633 H       1  UNL1        0.0000
     30 H           0.4878    7.5040   10.7458 H       1  UNL1        0.0000
     31 C           2.2967    5.7604    8.3598 C.3     1  UNL1        0.0000
     32 H           3.1867    5.6790    8.9779 H       1  UNL1        0.0000
     33 H           2.5991    5.9831    7.3318 H       1  UNL1        0.0000
     34 H           1.7706    4.8086    8.3787 H       1  UNL1        0.0000
     35 C           0.0535    6.8546    8.1130 C.3     1  UNL1        0.0000
     36 H          -0.5558    7.7229    8.3909 H       1  UNL1        0.0000
     37 H          -0.5000    5.9486    8.3580 H       1  UNL1        0.0000
     38 H           0.2385    6.8641    7.0265 H       1  UNL1        0.0000
@<TRIPOS>BOND
     1     7     6    1
     2    10     9    1
     3     6     8    1
     4     6     4    2
     5     9     8    1
     6     9    11    2
     7    12    11    1
     8     8    17    1
     9     5     4    1
    10    11    13    1
    11     4     3    1
    12    38    35    1
    13    33    31    1
    14    17     3    1
    15    17    15    1
    16    13    15    2
    17    13    14    1
    18     3     1    1
    19    35    37    1
    20    35    36    1
    21    35    26    1
    22    21    18    1
    23    31    34    1
    24    31    26    1
    25    31    32    1
    26    15    16    1
    27     2    26    1
    28     2     1    1
    29    26    27    1
    30    18     1    1
    31    18    20    1
    32    18    19    1
    33     1    22    1
    34    27    29    1
    35    27    30    1
    36    27    28    1
    37    22    25    1
    38    22    24    1
    39    22    23    1
