@<TRIPOS>MOLECULE
3,4,5,6,7,8
 42 42 0 0 0
SMALL
GASTEIGER

@<TRIPOS>ATOM
      1 SI          0.4478    1.0316    9.7081 Si      1  UNL1        0.0000
      2 O           2.7578    1.1455    7.2679 O.3     1  UNL1        0.0000
      3 N           0.6580    2.5762    8.9676 N.3     1  UNL1        0.0000
      4 C          -0.1597    1.9011   11.3026 C.2     1  UNL1        0.0000
      5 C          -1.3760    2.6548   11.3390 C.2     1  UNL1        0.0000
      6 C          -1.1959    3.7814   12.1855 C.2     1  UNL1        0.0000
      7 C           0.1438    3.7677   12.6476 C.2     1  UNL1        0.0000
      8 C           0.7753    2.6143   12.1104 C.3     1  UNL1        0.0000
      9 C          -2.7085    2.2067   10.8169 C.3     1  UNL1        0.0000
     10 C          -2.2960    4.7132   12.6076 C.3     1  UNL1        0.0000
     11 C           0.7796    4.6963   13.6428 C.3     1  UNL1        0.0000
     12 C           2.1512    2.1544   12.5005 C.3     1  UNL1        0.0000
     13 C          -0.8243   -0.0620    8.7770 C.3     1  UNL1        0.0000
     14 C           1.9542   -0.1165   10.0101 C.3     1  UNL1        0.0000
     15 C           1.1521    2.8685    7.6536 C.3     1  UNL1        0.0000
     16 C           2.6415    2.5293    7.4999 C.3     1  UNL1        0.0000
     17 C           4.0893    0.7061    7.2447 C.3     1  UNL1        0.0000
     18 H          -2.5858    1.4974   10.0046 H       1  UNL1        0.0000
     19 H          -3.3032    3.0523   10.4705 H       1  UNL1        0.0000
     20 H          -3.2695    1.7134   11.6161 H       1  UNL1        0.0000
     21 H          -1.9036    5.5794   13.1374 H       1  UNL1        0.0000
     22 H          -2.9889    4.1957   13.2757 H       1  UNL1        0.0000
     23 H          -2.8674    5.0658   11.7459 H       1  UNL1        0.0000
     24 H           0.9149    4.1857   14.6003 H       1  UNL1        0.0000
     25 H           0.1644    5.5770   13.8177 H       1  UNL1        0.0000
     26 H           1.7598    5.0227   13.2913 H       1  UNL1        0.0000
     27 H           2.2134    1.0702   12.4464 H       1  UNL1        0.0000
     28 H           2.3713    2.4616   13.5237 H       1  UNL1        0.0000
     29 H           2.9209    2.5822   11.8538 H       1  UNL1        0.0000
     30 H          -1.3434   -0.7375    9.4478 H       1  UNL1        0.0000
     31 H          -0.3013   -0.6665    8.0446 H       1  UNL1        0.0000
     32 H          -1.5640    0.5262    8.2435 H       1  UNL1        0.0000
     33 H           2.1454   -0.7004    9.1171 H       1  UNL1        0.0000
     34 H           1.7692   -0.8096   10.8254 H       1  UNL1        0.0000
     35 H           2.8568    0.4402   10.2360 H       1  UNL1        0.0000
     36 H           0.6143    2.2852    6.8889 H       1  UNL1        0.0000
     37 H           1.0238    3.9443    7.4420 H       1  UNL1        0.0000
     38 H           3.0760    3.0884    6.6549 H       1  UNL1        0.0000
     39 H           3.1738    2.8163    8.4199 H       1  UNL1        0.0000
     40 H           4.6552    1.1952    6.4408 H       1  UNL1        0.0000
     41 H           4.0649   -0.3675    7.0670 H       1  UNL1        0.0000
     42 H           4.5941    0.9080    8.1975 H       1  UNL1        0.0000
@<TRIPOS>BOND
     1    40    17    1
     2    38    16    1
     3    36    15    1
     4    41    17    1
     5    17     2    1
     6    17    42    1
     7     2    16    1
     8    37    15    1
     9    16    15    1
    10    16    39    1
    11    15     3    1
    12    31    13    1
    13    32    13    1
    14    13    30    1
    15    13     1    1
    16     3     1    1
    17    33    14    1
    18     1    14    1
    19     1     4    1
    20    18     9    1
    21    14    35    1
    22    14    34    1
    23    19     9    1
    24     9     5    1
    25     9    20    1
    26     4     5    2
    27     4     8    1
    28     5     6    1
    29    23    10    1
    30    29    12    1
    31     8    12    1
    32     8     7    1
    33     6    10    1
    34     6     7    2
    35    27    12    1
    36    12    28    1
    37    10    21    1
    38    10    22    1
    39     7    11    1
    40    26    11    1
    41    11    25    1
    42    11    24    1
