@<TRIPOS>MOLECULE
2,3,4,5,6,7
 44 44 0 0 0
SMALL
GASTEIGER

@<TRIPOS>ATOM
      1 SI          6.3392    1.6908   13.2160 Si      1  UNL1        0.0000
      2 N           4.9781    2.7375   13.3521 N.3     1  UNL1        0.0000
      3 C           6.9698    2.4732   11.5945 C.3     1  UNL1        0.0000
      4 C           7.4694    3.8153   11.5901 C.2     1  UNL1        0.0000
      5 C           7.2384    4.3842   10.3145 C.2     1  UNL1        0.0000
      6 C           6.5900    3.3980    9.5103 C.2     1  UNL1        0.0000
      7 C           6.4227    2.2359   10.2979 C.2     1  UNL1        0.0000
      8 C           8.3142    4.4234   12.6773 C.3     1  UNL1        0.0000
      9 H           8.6668    5.4115   12.3881 H       1  UNL1        0.0000
     10 H           9.1876    3.7956   12.8590 H       1  UNL1        0.0000
     11 H           7.7706    4.5111   13.6192 H       1  UNL1        0.0000
     12 C           7.7928    5.6816    9.7937 C.3     1  UNL1        0.0000
     13 H           8.8233    5.5441    9.4560 H       1  UNL1        0.0000
     14 H           7.7880    6.4549   10.5601 H       1  UNL1        0.0000
     15 H           7.2115    6.0416    8.9466 H       1  UNL1        0.0000
     16 C           6.3776    3.5187    8.0256 C.3     1  UNL1        0.0000
     17 H           5.9056    4.4669    7.7613 H       1  UNL1        0.0000
     18 H           5.7566    2.7085    7.6471 H       1  UNL1        0.0000
     19 H           7.3359    3.4731    7.5027 H       1  UNL1        0.0000
     20 C           6.0155    0.8899    9.7642 C.3     1  UNL1        0.0000
     21 H           6.8855    0.3876    9.3319 H       1  UNL1        0.0000
     22 H           5.2668    0.9766    8.9772 H       1  UNL1        0.0000
     23 H           5.6284    0.2576   10.5572 H       1  UNL1        0.0000
     24 C           7.7206    1.6510   14.5533 C.3     1  UNL1        0.0000
     25 H           7.9013    2.6229   14.9982 H       1  UNL1        0.0000
     26 H           8.6612    1.3022   14.1396 H       1  UNL1        0.0000
     27 H           7.4495    0.9713   15.3554 H       1  UNL1        0.0000
     28 C           5.8631   -0.1764   13.1112 C.3     1  UNL1        0.0000
     29 H           5.7631   -0.5833   14.1122 H       1  UNL1        0.0000
     30 H           6.6289   -0.7532   12.6039 H       1  UNL1        0.0000
     31 H           4.9190   -0.3491   12.6018 H       1  UNL1        0.0000
     32 C           4.2916    3.0860   14.5828 C.3     1  UNL1        0.0000
     33 C           5.0259    4.2494   15.2771 C.3     1  UNL1        0.0000
     34 H           6.0184    3.9262   15.5796 H       1  UNL1        0.0000
     35 H           4.4854    4.5853   16.1598 H       1  UNL1        0.0000
     36 H           5.1244    5.0816   14.5749 H       1  UNL1        0.0000
     37 C           4.2001    1.9024   15.5568 C.3     1  UNL1        0.0000
     38 H           3.7527    1.0464   15.0584 H       1  UNL1        0.0000
     39 H           3.5922    2.1677   16.4191 H       1  UNL1        0.0000
     40 H           5.1909    1.6221   15.8984 H       1  UNL1        0.0000
     41 C           2.8597    3.5488   14.2482 C.3     1  UNL1        0.0000
     42 H           2.8950    4.2882   13.4388 H       1  UNL1        0.0000
     43 H           2.3888    3.9983   15.1201 H       1  UNL1        0.0000
     44 H           2.2570    2.6998   13.9328 H       1  UNL1        0.0000
@<TRIPOS>BOND
     1    19    16    1
     2    18    16    1
     3    17    16    1
     4    16     6    1
     5    15    12    1
     6    22    20    1
     7    21    20    1
     8    13    12    1
     9     6     7    2
    10     6     5    1
    11    20     7    1
    12    20    23    1
    13    12     5    1
    14    12    14    1
    15     7     3    1
    16     5     4    2
    17     4     3    1
    18     4     8    1
    19     3     1    1
    20     9     8    1
    21    31    28    1
    22    30    28    1
    23     8    10    1
    24     8    11    1
    25    28     1    1
    26    28    29    1
    27     1     2    1
    28     1    24    1
    29     2    32    1
    30    42    41    1
    31    44    41    1
    32    26    24    1
    33    41    32    1
    34    41    43    1
    35    24    25    1
    36    24    27    1
    37    36    33    1
    38    32    33    1
    39    32    37    1
    40    38    37    1
    41    33    34    1
    42    33    35    1
    43    37    40    1
    44    37    39    1
