@<TRIPOS>MOLECULE
1,2,3,4,5,6
 34 37 0 0 0
SMALL
GASTEIGER

@<TRIPOS>ATOM
      1 N          -0.0166    1.9185    2.4478 N.pl3   1  UNL1       -0.2451
      2 C           1.8405    3.5612    1.3026 C.3     1  UNL1        0.0379
      3 C           1.9786    4.8945    1.7827 C.ar    1  UNL1       -0.0279
      4 C           3.1833    4.9784    2.5810 C.ar    1  UNL1       -0.0135
      5 C           3.7995    3.6820    2.5692 C.ar    1  UNL1       -0.0135
      6 C           2.9625    2.8172    1.7661 C.ar    1  UNL1       -0.0279
      7 C           0.7622    3.0184    0.4113 C.3     1  UNL1       -0.0090
      8 H           1.1953    2.5254   -0.4680 H       1  UNL1        0.0302
      9 H           0.1356    3.8375    0.0413 H       1  UNL1        0.0302
     10 C          -0.1238    2.0226    1.1180 C.3     1  UNL1        0.0989
     11 C          -1.0207    1.2420    0.3896 C.2     1  UNL1       -0.0567
     12 H          -1.0770    1.3575   -0.6823 H       1  UNL1        0.0595
     13 C          -1.8257    0.3345    1.0479 C.2     1  UNL1       -0.0623
     14 H          -2.5295   -0.2765    0.5026 H       1  UNL1        0.0616
     15 C          -1.7057    0.2235    2.4269 C.2     1  UNL1       -0.0466
     16 H          -2.3076   -0.4748    2.9856 H       1  UNL1        0.0630
     17 C          -0.7927    1.0318    3.0753 C.2     1  UNL1        0.0125
     18 H          -0.6677    0.9759    4.1494 H       1  UNL1        0.0797
     19 C           1.2459    6.0730    1.5327 C.ar    1  UNL1       -0.0571
     20 H           0.3665    6.0488    0.9019 H       1  UNL1        0.0621
     21 C           1.6782    7.2607    2.0700 C.ar    1  UNL1       -0.0614
     22 H           1.1226    8.1674    1.8762 H       1  UNL1        0.0618
     23 C           2.8370    7.3325    2.8553 C.ar    1  UNL1       -0.0612
     24 H           3.1460    8.2882    3.2520 H       1  UNL1        0.0618
     25 C           3.5914    6.2079    3.1050 C.ar    1  UNL1       -0.0537
     26 H           4.5034    6.2753    3.6822 H       1  UNL1        0.0624
     27 C           5.0191    3.2096    3.0624 C.ar    1  UNL1       -0.0537
     28 H           5.6673    3.8659    3.6264 H       1  UNL1        0.0624
     29 C           5.3999    1.9137    2.7939 C.ar    1  UNL1       -0.0612
     30 H           6.3427    1.5407    3.1658 H       1  UNL1        0.0618
     31 C           4.5868    1.0671    2.0270 C.ar    1  UNL1       -0.0614
     32 H           4.9232    0.0590    1.8285 H       1  UNL1        0.0618
     33 C           3.3861    1.4953    1.5138 C.ar    1  UNL1       -0.0571
     34 H           2.7860    0.8369    0.8963 H       1  UNL1        0.0621
@<TRIPOS>BOND
     1    12    11    1
     2     8     7    1
     3     9     7    1
     4    11    13    2
     5    11    10    1
     6     7    10    1
     7     7     2    1
     8    14    13    1
     9    34    33    1
    10    20    19    1
    11    13    15    1
    12    10     1    1
    13     2     6    1
    14     2     3    1
    15    33     6   ar
    16    33    31   ar
    17    19     3   ar
    18    19    21   ar
    19     6     5   ar
    20     3     4   ar
    21    32    31    1
    22    22    21    1
    23    31    29   ar
    24    21    23   ar
    25    15    16    1
    26    15    17    2
    27     1    17    1
    28     5     4    1
    29     5    27   ar
    30     4    25   ar
    31    29    27   ar
    32    29    30    1
    33    23    25   ar
    34    23    24    1
    35    27    28    1
    36    17    18    1
    37    25    26    1
