@<TRIPOS>MOLECULE
2,3,4,5,6,7
 54 56 0 0 0
SMALL
GASTEIGER

@<TRIPOS>ATOM
      1 SI          5.1684    9.0871    7.5164 Si      1  UNL1        0.0000
      2 N           3.4347    9.0844    7.4319 N.3     1  UNL1        0.0000
      3 C           5.2824    8.7078    5.6578 C.3     1  UNL1        0.0000
      4 C           4.8422    7.4498    5.1508 C.2     1  UNL1        0.0000
      5 C           4.2240    7.6542    3.8955 C.2     1  UNL1        0.0000
      6 C           4.2726    9.0508    3.6096 C.2     1  UNL1        0.0000
      7 C           4.9186    9.6903    4.6907 C.2     1  UNL1        0.0000
      8 C           5.0943    6.1189    5.8036 C.3     1  UNL1        0.0000
      9 C           3.7798    6.5933    2.9275 C.3     1  UNL1        0.0000
     10 C           3.8761    9.6827    2.3049 C.3     1  UNL1        0.0000
     11 C           5.2830   11.1474    4.7589 C.3     1  UNL1        0.0000
     12 C           5.9805   10.7361    8.0792 C.3     1  UNL1        0.0000
     13 C           6.0113    7.7797    8.6411 C.3     1  UNL1        0.0000
     14 C           2.5290    9.4410    8.5107 C.3     1  UNL1        0.0000
     15 C           2.3287   10.9637    8.5547 C.3     1  UNL1        0.0000
     16 C           3.0263    8.8589    9.8214 C.ar    1  UNL1        0.0000
     17 C           3.4813    9.6488   10.8466 C.ar    1  UNL1        0.0000
     18 C           3.9654    9.0977   12.0424 C.ar    1  UNL1        0.0000
     19 C           3.9935    7.7457   12.2194 C.ar    1  UNL1        0.0000
     20 C           3.5804    5.4871   11.3512 C.ar    1  UNL1        0.0000
     21 C           3.1666    4.6560   10.3497 C.ar    1  UNL1        0.0000
     22 C           2.7011    5.1987    9.1434 C.ar    1  UNL1        0.0000
     23 C           2.6485    6.5536    8.9621 C.ar    1  UNL1        0.0000
     24 C           3.0613    7.4434    9.9782 C.ar    1  UNL1        0.0000
     25 C           3.5442    6.8885   11.1939 C.ar    1  UNL1        0.0000
     26 H           6.1052    6.0921    6.2087 H       1  UNL1        0.0000
     27 H           4.9983    5.3095    5.0806 H       1  UNL1        0.0000
     28 H           4.3991    5.9327    6.6272 H       1  UNL1        0.0000
     29 H           3.4673    5.6876    3.4461 H       1  UNL1        0.0000
     30 H           4.5983    6.3324    2.2508 H       1  UNL1        0.0000
     31 H           2.9451    6.9418    2.3189 H       1  UNL1        0.0000
     32 H           3.0080    9.1837    1.8737 H       1  UNL1        0.0000
     33 H           4.6945    9.6083    1.5833 H       1  UNL1        0.0000
     34 H           3.6338   10.7369    2.4352 H       1  UNL1        0.0000
     35 H           5.3430   11.5762    3.7590 H       1  UNL1        0.0000
     36 H           6.2548   11.2612    5.2359 H       1  UNL1        0.0000
     37 H           4.5540   11.7240    5.3354 H       1  UNL1        0.0000
     38 H           5.5149   11.6131    7.6427 H       1  UNL1        0.0000
     39 H           7.0350   10.7572    7.8242 H       1  UNL1        0.0000
     40 H           5.9090   10.8228    9.1587 H       1  UNL1        0.0000
     41 H           6.0218    8.1275    9.6688 H       1  UNL1        0.0000
     42 H           7.0417    7.6177    8.3415 H       1  UNL1        0.0000
     43 H           5.5041    6.8222    8.6296 H       1  UNL1        0.0000
     44 H           1.5357    8.9988    8.2994 H       1  UNL1        0.0000
     45 H           3.2805   11.4662    8.7037 H       1  UNL1        0.0000
     46 H           1.6371   11.2407    9.3476 H       1  UNL1        0.0000
     47 H           1.9167   11.2851    7.5989 H       1  UNL1        0.0000
     48 H           3.4734   10.7228   10.7574 H       1  UNL1        0.0000
     49 H           4.3139    9.7598   12.8222 H       1  UNL1        0.0000
     50 H           4.3624    7.3128   13.1384 H       1  UNL1        0.0000
     51 H           3.9493    5.0829   12.2834 H       1  UNL1        0.0000
     52 H           3.1999    3.5837   10.4764 H       1  UNL1        0.0000
     53 H           2.3822    4.5338    8.3529 H       1  UNL1        0.0000
     54 H           2.3091    6.9564    8.0171 H       1  UNL1        0.0000
@<TRIPOS>BOND
     1    33    10    1
     2    32    10    1
     3    30     9    1
     4    10    34    1
     5    10     6    1
     6    31     9    1
     7     9    29    1
     8     9     5    1
     9     6     5    1
    10     6     7    2
    11    35    11    1
    12     5     4    2
    13     7    11    1
    14     7     3    1
    15    11    36    1
    16    11    37    1
    17    27     8    1
    18     4     3    1
    19     4     8    1
    20     3     1    1
    21     8    26    1
    22     8    28    1
    23     2     1    1
    24     2    14    1
    25     1    12    1
    26     1    13    1
    27    47    15    1
    28    38    12    1
    29    39    12    1
    30    54    23    1
    31    12    40    1
    32    44    14    1
    33    42    13    1
    34    53    22    1
    35    14    15    1
    36    14    16    1
    37    15    45    1
    38    15    46    1
    39    43    13    1
    40    13    41    1
    41    23    22   ar
    42    23    24   ar
    43    22    21   ar
    44    16    24   ar
    45    16    17   ar
    46    24    25   ar
    47    21    52    1
    48    21    20   ar
    49    48    17    1
    50    17    18   ar
    51    25    20   ar
    52    25    19   ar
    53    20    51    1
    54    18    19   ar
    55    18    49    1
    56    19    50    1
