@<TRIPOS>MOLECULE
2,3,4,5,6,7
 54 58 0 0 0
SMALL
GASTEIGER

@<TRIPOS>ATOM
      1 SI         -4.8571   -3.3728  -13.8074 Si      1  UNL1        0.0000
      2 N          -5.4941   -1.9715  -14.6282 N.3     1  UNL1        0.0000
      3 C          -4.8911   -4.3355  -16.5496 C.ar    1  UNL1        0.0000
      4 C          -5.4113   -4.5100  -15.2243 C.3     1  UNL1        0.0000
      5 C          -6.7629   -4.9542  -15.3915 C.ar    1  UNL1        0.0000
      6 C          -7.0913   -5.0171  -16.7961 C.ar    1  UNL1        0.0000
      7 C          -5.9135   -4.6315  -17.5254 C.ar    1  UNL1        0.0000
      8 C          -3.6165   -3.9530  -17.0087 C.ar    1  UNL1        0.0000
      9 C          -3.3711   -3.9020  -18.3615 C.ar    1  UNL1        0.0000
     10 C          -4.3632   -4.2188  -19.3008 C.ar    1  UNL1        0.0000
     11 C          -5.6267   -4.5854  -18.8936 C.ar    1  UNL1        0.0000
     12 C          -7.7374   -5.3538  -14.4575 C.ar    1  UNL1        0.0000
     13 C          -8.9651   -5.7849  -14.9023 C.ar    1  UNL1        0.0000
     14 C          -9.2741   -5.8425  -16.2689 C.ar    1  UNL1        0.0000
     15 C          -8.3460   -5.4707  -17.2156 C.ar    1  UNL1        0.0000
     16 C          -2.9771   -3.4122  -13.4208 C.3     1  UNL1        0.0000
     17 H          -2.6557   -4.4211  -13.1837 H       1  UNL1        0.0000
     18 H          -2.7712   -2.7909  -12.5554 H       1  UNL1        0.0000
     19 H          -2.3595   -3.0542  -14.2372 H       1  UNL1        0.0000
     20 C          -5.7015   -3.7398  -12.1251 C.3     1  UNL1        0.0000
     21 H          -5.2452   -3.1447  -11.3408 H       1  UNL1        0.0000
     22 H          -5.5904   -4.7828  -11.8473 H       1  UNL1        0.0000
     23 H          -6.7600   -3.4980  -12.1410 H       1  UNL1        0.0000
     24 C          -5.1428   -0.5876  -14.3602 C.3     1  UNL1        0.0000
     25 C          -3.8866   -0.2150  -15.1625 C.3     1  UNL1        0.0000
     26 H          -3.0555   -0.8558  -14.8807 H       1  UNL1        0.0000
     27 H          -3.6188    0.8269  -15.0021 H       1  UNL1        0.0000
     28 H          -4.0945   -0.3714  -16.2211 H       1  UNL1        0.0000
     29 C          -5.0011   -0.3606  -12.8662 C.ar    1  UNL1        0.0000
     30 C          -3.7913   -0.0877  -12.2796 C.ar    1  UNL1        0.0000
     31 C          -3.6684    0.0882  -10.8932 C.ar    1  UNL1        0.0000
     32 C          -4.7624   -0.0066  -10.0842 C.ar    1  UNL1        0.0000
     33 C          -6.0291   -0.2871  -10.6367 C.ar    1  UNL1        0.0000
     34 C          -7.1710   -0.3998   -9.8159 C.ar    1  UNL1        0.0000
     35 C          -8.3946   -0.6877  -10.3496 C.ar    1  UNL1        0.0000
     36 C          -8.5236   -0.8757  -11.7332 C.ar    1  UNL1        0.0000
     37 C          -7.4363   -0.7693  -12.5560 C.ar    1  UNL1        0.0000
     38 C          -6.1563   -0.4708  -12.0401 C.ar    1  UNL1        0.0000
     39 H          -2.8238   -3.7502  -16.3014 H       1  UNL1        0.0000
     40 H          -2.3883   -3.6241  -18.7163 H       1  UNL1        0.0000
     41 H          -4.1244   -4.1818  -20.3535 H       1  UNL1        0.0000
     42 H          -6.3852   -4.8484  -19.6205 H       1  UNL1        0.0000
     43 H          -7.5061   -5.3585  -13.4017 H       1  UNL1        0.0000
     44 H          -9.7110   -6.1019  -14.1868 H       1  UNL1        0.0000
     45 H         -10.2466   -6.1982  -16.5761 H       1  UNL1        0.0000
     46 H          -8.5752   -5.5437  -18.2717 H       1  UNL1        0.0000
     47 H          -5.9606    0.0623  -14.7276 H       1  UNL1        0.0000
     48 H          -2.8990    0.0032  -12.8769 H       1  UNL1        0.0000
     49 H          -2.6951    0.3014  -10.4753 H       1  UNL1        0.0000
     50 H          -4.6766    0.1283   -9.0155 H       1  UNL1        0.0000
     51 H          -7.0553   -0.2564   -8.7508 H       1  UNL1        0.0000
     52 H          -9.2636   -0.7749   -9.7140 H       1  UNL1        0.0000
     53 H          -9.4939   -1.1085  -12.1479 H       1  UNL1        0.0000
     54 H          -7.5483   -0.9379  -13.6180 H       1  UNL1        0.0000
@<TRIPOS>BOND
     1    41    10    1
     2    42    11    1
     3    10    11   ar
     4    10     9   ar
     5    11     7   ar
     6    40     9    1
     7     9     8   ar
     8    46    15    1
     9     7     6    1
    10     7     3   ar
    11    15     6   ar
    12    15    14   ar
    13     8     3   ar
    14     8    39    1
    15     6     5   ar
    16    45    14    1
    17     3     4    1
    18    14    13   ar
    19    28    25    1
    20     5     4    1
    21     5    12   ar
    22     4     1    1
    23    25    27    1
    24    25    26    1
    25    25    24    1
    26    13    12   ar
    27    13    44    1
    28    47    24    1
    29     2    24    1
    30     2     1    1
    31    12    43    1
    32    24    29    1
    33    19    16    1
    34     1    16    1
    35     1    20    1
    36    54    37    1
    37    16    17    1
    38    16    18    1
    39    48    30    1
    40    29    30   ar
    41    29    38   ar
    42    37    38   ar
    43    37    36   ar
    44    30    31   ar
    45    53    36    1
    46    23    20    1
    47    20    22    1
    48    20    21    1
    49    38    33   ar
    50    36    35   ar
    51    31    49    1
    52    31    32   ar
    53    33    32   ar
    54    33    34   ar
    55    35    34   ar
    56    35    52    1
    57    32    50    1
    58    34    51    1
