@<TRIPOS>MOLECULE
3,12,13,18,35
 46 47 0 0 0
SMALL
GASTEIGER

@<TRIPOS>ATOM
      1 SI         12.0283    1.4529    2.5726 Si      1  UNL1        0.0000
      2 C          11.7987    4.0613    1.5514 C.ar    1  UNL1        0.0000
      3 N          11.7808    3.1776    2.5877 N.pl3   1  UNL1        0.0000
      4 C          11.8014    3.6489    0.2067 C.ar    1  UNL1        0.0000
      5 H          11.8083    2.5906   -0.0091 H       1  UNL1        0.0000
      6 C          11.5710    1.3441    4.4050 C.3     1  UNL1        0.0000
      7 C          11.7921    4.5564   -0.8263 C.ar    1  UNL1        0.0000
      8 H          11.7913    4.1890   -1.8416 H       1  UNL1        0.0000
      9 C          11.8063    6.3487    0.7481 C.ar    1  UNL1        0.0000
     10 H          11.8174    7.4093    0.9644 H       1  UNL1        0.0000
     11 C          11.7868    5.9332   -0.5882 C.ar    1  UNL1        0.0000
     12 C          10.2684    1.7755    4.8182 C.2     1  UNL1        0.0000
     13 C          12.4716    1.6753    5.4549 C.2     1  UNL1        0.0000
     14 C           9.2514    2.7862    7.0004 C.3     1  UNL1        0.0000
     15 H           8.3473    3.0086    6.4356 H       1  UNL1        0.0000
     16 H           9.5237    3.6741    7.5732 H       1  UNL1        0.0000
     17 H           9.0158    1.9893    7.7113 H       1  UNL1        0.0000
     18 C          10.3737    2.3596    6.0959 C.2     1  UNL1        0.0000
     19 C           8.9889    1.4355    4.1070 C.3     1  UNL1        0.0000
     20 H           8.7656    0.3735    4.2409 H       1  UNL1        0.0000
     21 H           9.0576    1.6253    3.0369 H       1  UNL1        0.0000
     22 H           8.1488    2.0016    4.5062 H       1  UNL1        0.0000
     23 C          11.7686    6.9293   -1.6443 C.2     1  UNL1        0.0000
     24 H          11.8079    7.9543   -1.2924 H       1  UNL1        0.0000
     25 C          13.8316    1.0068    2.0875 C.3     1  UNL1        0.0000
     26 H          13.9822    1.1894    1.0278 H       1  UNL1        0.0000
     27 H          14.0457   -0.0413    2.2689 H       1  UNL1        0.0000
     28 H          14.5605    1.6029    2.6275 H       1  UNL1        0.0000
     29 C          11.8149    5.4504    1.7896 C.ar    1  UNL1        0.0000
     30 H          11.8400    5.7938    2.8221 H       1  UNL1        0.0000
     31 C          13.9139    1.2625    5.5467 C.3     1  UNL1        0.0000
     32 H          14.5916    2.1142    5.4605 H       1  UNL1        0.0000
     33 H          14.1507    0.5511    4.7600 H       1  UNL1        0.0000
     34 H          14.1038    0.7799    6.5078 H       1  UNL1        0.0000
     35 C          11.7448    2.3002    6.4920 C.2     1  UNL1        0.0000
     36 C          12.2422    2.5624    7.8868 C.3     1  UNL1        0.0000
     37 H          12.0263    1.6986    8.5232 H       1  UNL1        0.0000
     38 H          11.7512    3.4270    8.3353 H       1  UNL1        0.0000
     39 H          13.3181    2.7268    7.8996 H       1  UNL1        0.0000
     40 C          10.9071    0.3912    1.4244 C.3     1  UNL1        0.0000
     41 H          10.0759    0.9612    1.0207 H       1  UNL1        0.0000
     42 H          10.4965   -0.4644    1.9502 H       1  UNL1        0.0000
     43 H          11.4790    0.0111    0.5842 H       1  UNL1        0.0000
     44 C          11.7039    6.7108   -2.9545 C.2     1  UNL1        0.0000
     45 H          11.6569    5.7225   -3.3784 H       1  UNL1        0.0000
     46 H          11.6934    7.5251   -3.6587 H       1  UNL1        0.0000
@<TRIPOS>BOND
     1    46    44    1
     2    45    44    1
     3    44    23    2
     4     8     7    1
     5    23    24    1
     6    23    11    1
     7     7    11   ar
     8     7     4   ar
     9    11     9   ar
    10     5     4    1
    11     4     2   ar
    12    43    40    1
    13     9    10    1
    14     9    29   ar
    15    41    40    1
    16    26    25    1
    17    40    42    1
    18    40     1    1
    19     2    29   ar
    20     2     3    1
    21    29    30    1
    22    25    27    1
    23    25     1    1
    24    25    28    1
    25     1     3    1
    26     1     6    1
    27    21    19    1
    28    19    20    1
    29    19    22    1
    30    19    12    1
    31     6    12    1
    32     6    13    1
    33    33    31    1
    34    12    18    2
    35    13    31    1
    36    13    35    2
    37    32    31    1
    38    31    34    1
    39    18    35    1
    40    18    14    1
    41    15    14    1
    42    35    36    1
    43    14    16    1
    44    14    17    1
    45    36    39    1
    46    36    38    1
    47    36    37    1
