@<TRIPOS>MOLECULE
2,4,5,6,7
 44 44 0 0 0
SMALL
GASTEIGER

@<TRIPOS>ATOM
      1 SI          0.6048    7.3746   10.2164 Si      1  UNL1        0.0000
      2 N           0.9041    6.3527    8.8638 N.3     1  UNL1        0.0000
      3 C           2.4556    7.6288   10.6170 C.3     1  UNL1        0.0000
      4 C           3.2692    6.4970   10.9394 C.2     1  UNL1        0.0000
      5 C           4.5828    6.7120   10.4536 C.2     1  UNL1        0.0000
      6 C           4.5953    7.9820    9.8049 C.2     1  UNL1        0.0000
      7 C           3.2973    8.5404    9.9099 C.2     1  UNL1        0.0000
      8 C           2.8062    5.3007   11.7265 C.3     1  UNL1        0.0000
      9 H           2.5122    5.6010   12.7344 H       1  UNL1        0.0000
     10 H           3.6003    4.5597   11.8168 H       1  UNL1        0.0000
     11 H           1.9379    4.8337   11.2532 H       1  UNL1        0.0000
     12 C           5.7835    5.8369   10.7025 C.3     1  UNL1        0.0000
     13 H           6.5643    6.0266    9.9663 H       1  UNL1        0.0000
     14 H           5.5258    4.7772   10.6514 H       1  UNL1        0.0000
     15 H           6.2043    6.0347   11.6918 H       1  UNL1        0.0000
     16 C           5.7975    8.6823    9.2301 C.3     1  UNL1        0.0000
     17 H           6.5392    7.9663    8.8747 H       1  UNL1        0.0000
     18 H           6.2791    9.3094    9.9854 H       1  UNL1        0.0000
     19 H           5.5092    9.3232    8.3951 H       1  UNL1        0.0000
     20 C           2.9511    9.9433    9.4866 C.3     1  UNL1        0.0000
     21 H           2.0202   10.2576    9.9499 H       1  UNL1        0.0000
     22 H           2.8507   10.0360    8.4000 H       1  UNL1        0.0000
     23 H           3.7360   10.6325    9.8057 H       1  UNL1        0.0000
     24 C          -0.3980    6.6623   11.7003 C.3     1  UNL1        0.0000
     25 H          -1.4607    6.6934   11.4804 H       1  UNL1        0.0000
     26 H          -0.2381    7.2522   12.5966 H       1  UNL1        0.0000
     27 H          -0.1432    5.6351   11.9348 H       1  UNL1        0.0000
     28 C          -0.3321    9.0191    9.8477 C.3     1  UNL1        0.0000
     29 H          -1.3951    8.8282    9.7440 H       1  UNL1        0.0000
     30 H           0.0040    9.4943    8.9318 H       1  UNL1        0.0000
     31 H          -0.2169    9.7319   10.6578 H       1  UNL1        0.0000
     32 C          -0.0282    5.5948    8.0554 C.3     1  UNL1        0.0000
     33 C           0.6902    5.1242    6.7687 C.3     1  UNL1        0.0000
     34 H           1.5375    4.4742    7.0201 H       1  UNL1        0.0000
     35 H           1.0517    5.9859    6.1981 H       1  UNL1        0.0000
     36 H          -0.0012    4.5616    6.1418 H       1  UNL1        0.0000
     37 C          -1.2546    6.4306    7.6500 C.3     1  UNL1        0.0000
     38 H          -1.8177    6.7107    8.5353 H       1  UNL1        0.0000
     39 H          -1.9037    5.8639    6.9863 H       1  UNL1        0.0000
     40 H          -0.9372    7.3375    7.1415 H       1  UNL1        0.0000
     41 C          -0.5171    4.3511    8.8241 C.3     1  UNL1        0.0000
     42 H           0.3345    3.7395    9.1186 H       1  UNL1        0.0000
     43 H          -1.1832    3.7515    8.2080 H       1  UNL1        0.0000
     44 H          -1.0489    4.6605    9.7194 H       1  UNL1        0.0000
@<TRIPOS>BOND
     1    36    33    1
     2    35    33    1
     3    33    34    1
     4    33    32    1
     5    39    37    1
     6    40    37    1
     7    37    32    1
     8    37    38    1
     9    32    41    1
    10    32     2    1
    11    43    41    1
    12    19    16    1
    13    22    20    1
    14    41    42    1
    15    41    44    1
    16     2     1    1
    17    17    16    1
    18    30    28    1
    19    16     6    1
    20    16    18    1
    21    20    23    1
    22    20     7    1
    23    20    21    1
    24    29    28    1
    25     6     7    2
    26     6     5    1
    27    28     1    1
    28    28    31    1
    29     7     3    1
    30    13    12    1
    31     1     3    1
    32     1    24    1
    33     5    12    1
    34     5     4    2
    35     3     4    1
    36    14    12    1
    37    12    15    1
    38     4     8    1
    39    11     8    1
    40    25    24    1
    41    24    27    1
    42    24    26    1
    43     8    10    1
    44     8     9    1
