@<TRIPOS>MOLECULE
2,3,4,5,8,13
 51 52 0 0 0
SMALL
GASTEIGER

@<TRIPOS>ATOM
      1 SI         -0.1922    3.0847    3.0666 Si      1  UNL1        0.0000
      2 N          -0.4511    4.4407    4.1122 N.3     1  UNL1        0.0000
      3 C          -0.7286    1.4054    5.4175 C.2     1  UNL1        0.0000
      4 C          -1.8299    1.2473    6.2861 C.2     1  UNL1        0.0000
      5 C          -1.2021    1.9357    4.1800 C.3     1  UNL1        0.0000
      6 C          -1.1743    6.2477    2.6692 C.ar    1  UNL1        0.0000
      7 C          -0.1666    5.8151    3.7312 C.3     1  UNL1        0.0000
      8 C          -2.6123    2.1300    4.3218 C.2     1  UNL1        0.0000
      9 C           1.6409    2.5378    2.8030 C.3     1  UNL1        0.0000
     10 H           2.0458    2.9910    1.9038 H       1  UNL1        0.0000
     11 H           1.7156    1.4624    2.6787 H       1  UNL1        0.0000
     12 H           2.2870    2.8247    3.6272 H       1  UNL1        0.0000
     13 C          -2.9975    1.6947    5.6076 C.2     1  UNL1        0.0000
     14 C          -1.8688    0.4813    7.5785 C.3     1  UNL1        0.0000
     15 H          -2.2930   -0.5123    7.4062 H       1  UNL1        0.0000
     16 H          -2.4928    0.9782    8.3227 H       1  UNL1        0.0000
     17 H          -0.8737    0.3473    7.9972 H       1  UNL1        0.0000
     18 C           0.6451    0.8473    5.6597 C.3     1  UNL1        0.0000
     19 H           0.6984   -0.1775    5.2803 H       1  UNL1        0.0000
     20 H           0.8809    0.8149    6.7232 H       1  UNL1        0.0000
     21 H           1.4065    1.4320    5.1519 H       1  UNL1        0.0000
     22 C          -0.8423    6.8489    1.4633 C.ar    1  UNL1        0.0000
     23 H           0.1855    7.0611    1.2154 H       1  UNL1        0.0000
     24 C          -2.5183    6.0030    2.9368 C.ar    1  UNL1        0.0000
     25 H          -2.7665    5.5263    3.8780 H       1  UNL1        0.0000
     26 C          -4.3848    1.4515    6.1352 C.3     1  UNL1        0.0000
     27 H          -4.5726    0.3756    6.1915 H       1  UNL1        0.0000
     28 H          -5.1490    1.8892    5.4961 H       1  UNL1        0.0000
     29 H          -4.5063    1.8582    7.1404 H       1  UNL1        0.0000
     30 C          -0.8312    3.2432    1.2593 C.3     1  UNL1        0.0000
     31 H          -0.1224    3.8105    0.6646 H       1  UNL1        0.0000
     32 H          -1.7841    3.7546    1.1916 H       1  UNL1        0.0000
     33 H          -0.9385    2.2693    0.7930 H       1  UNL1        0.0000
     34 C          -0.3360    6.7559    4.9388 C.3     1  UNL1        0.0000
     35 H          -1.3627    6.7184    5.2937 H       1  UNL1        0.0000
     36 H          -0.0984    7.7786    4.6488 H       1  UNL1        0.0000
     37 H           0.3286    6.4450    5.7439 H       1  UNL1        0.0000
     38 C          -3.5344    2.4705    3.1812 C.3     1  UNL1        0.0000
     39 H          -3.3314    1.8058    2.3399 H       1  UNL1        0.0000
     40 H          -3.4024    3.4947    2.8283 H       1  UNL1        0.0000
     41 H          -4.5787    2.3335    3.4630 H       1  UNL1        0.0000
     42 C           1.2800    5.9517    3.2282 C.3     1  UNL1        0.0000
     43 H           1.9602    5.5661    3.9838 H       1  UNL1        0.0000
     44 H           1.5287    6.9945    3.0447 H       1  UNL1        0.0000
     45 H           1.4219    5.3802    2.3163 H       1  UNL1        0.0000
     46 C          -3.5030    6.3406    2.0282 C.ar    1  UNL1        0.0000
     47 H          -4.5413    6.1413    2.2553 H       1  UNL1        0.0000
     48 C          -1.8280    7.1854    0.5484 C.ar    1  UNL1        0.0000
     49 H          -1.5503    7.6474   -0.3883 H       1  UNL1        0.0000
     50 C          -3.1591    6.9335    0.8237 C.ar    1  UNL1        0.0000
     51 H          -3.9234    7.1956    0.1068 H       1  UNL1        0.0000
@<TRIPOS>BOND
     1    49    48    1
     2    51    50    1
     3    48    50   ar
     4    48    22   ar
     5    31    30    1
     6    33    30    1
     7    50    46   ar
     8    32    30    1
     9    23    22    1
    10    30     1    1
    11    22     6   ar
    12    10     9    1
    13    46    47    1
    14    46    24   ar
    15    45    42    1
    16    39    38    1
    17     6    24   ar
    18     6     7    1
    19    11     9    1
    20     9     1    1
    21     9    12    1
    22    40    38    1
    23    24    25    1
    24    44    42    1
    25     1     2    1
    26     1     5    1
    27    38    41    1
    28    38     8    1
    29    42     7    1
    30    42    43    1
    31     7     2    1
    32     7    34    1
    33     5     8    1
    34     5     3    1
    35     8    13    2
    36    36    34    1
    37    34    35    1
    38    34    37    1
    39    21    18    1
    40    19    18    1
    41     3    18    1
    42     3     4    2
    43    28    26    1
    44    13    26    1
    45    13     4    1
    46    18    20    1
    47    26    27    1
    48    26    29    1
    49     4    14    1
    50    15    14    1
    51    14    17    1
    52    14    16    1
