@<TRIPOS>MOLECULE
2,3,8,9,12,13
 52 54 0 0 0
SMALL
GASTEIGER

@<TRIPOS>ATOM
      1 SI          5.9470    2.2629    3.1232 Si      1  UNL1        0.0000
      2 N           4.2329    2.2406    2.8579 N.pl3   1  UNL1        0.0000
      3 C           5.2440    4.0284    5.3020 C.2     1  UNL1        0.0000
      4 C           3.3514    1.1957    3.0443 C.ar    1  UNL1        0.0000
      5 C           2.3931    0.8464    2.0665 C.ar    1  UNL1        0.0000
      6 C           3.5497    1.4948   -0.0313 C.ar    1  UNL1        0.0000
      7 H           4.4568    1.0831    0.3848 H       1  UNL1        0.0000
      8 C           5.8858    3.9296    4.0269 C.3     1  UNL1        0.0000
      9 C           4.5847    5.2764    5.3762 C.2     1  UNL1        0.0000
     10 C           1.2111    1.9759    0.1817 C.ar    1  UNL1        0.0000
     11 H           0.2998    1.9601    0.7634 H       1  UNL1        0.0000
     12 C           4.8160    5.9661    4.1476 C.2     1  UNL1        0.0000
     13 C           5.6111    5.1411    3.3253 C.2     1  UNL1        0.0000
     14 C           3.3495    0.4579    4.2383 C.ar    1  UNL1        0.0000
     15 H           4.0954    0.6960    4.9844 H       1  UNL1        0.0000
     16 C           2.3873    1.4773    0.7361 C.ar    1  UNL1        0.0000
     17 C           2.4291   -0.5411    4.4785 C.ar    1  UNL1        0.0000
     18 H           2.4584   -1.0863    5.4122 H       1  UNL1        0.0000
     19 C           1.4679   -0.8463    3.5274 C.ar    1  UNL1        0.0000
     20 H           0.7410   -1.6234    3.7113 H       1  UNL1        0.0000
     21 C           4.4855    7.4169    3.9345 C.3     1  UNL1        0.0000
     22 H           5.2393    8.0452    4.4189 H       1  UNL1        0.0000
     23 H           3.5161    7.6677    4.3649 H       1  UNL1        0.0000
     24 H           4.4708    7.6745    2.8768 H       1  UNL1        0.0000
     25 C           1.4628   -0.1521    2.3319 C.ar    1  UNL1        0.0000
     26 H           0.7399   -0.4044    1.5680 H       1  UNL1        0.0000
     27 C           1.2011    2.4883   -1.1035 C.ar    1  UNL1        0.0000
     28 H           0.2818    2.8733   -1.5227 H       1  UNL1        0.0000
     29 C           6.7553    0.8024    4.0727 C.3     1  UNL1        0.0000
     30 H           7.8366    0.8520    3.9964 H       1  UNL1        0.0000
     31 H           6.4388   -0.1320    3.6190 H       1  UNL1        0.0000
     32 H           6.5013    0.7563    5.1244 H       1  UNL1        0.0000
     33 C           2.3628    2.5028   -1.8576 C.ar    1  UNL1        0.0000
     34 H           2.3518    2.8962   -2.8638 H       1  UNL1        0.0000
     35 C           5.4830    3.0742    6.4417 C.3     1  UNL1        0.0000
     36 H           6.5291    2.7662    6.4399 H       1  UNL1        0.0000
     37 H           4.8664    2.1746    6.3807 H       1  UNL1        0.0000
     38 H           5.2827    3.5532    7.4008 H       1  UNL1        0.0000
     39 C           6.2840    5.5711    2.0530 C.3     1  UNL1        0.0000
     40 H           7.3421    5.7635    2.2492 H       1  UNL1        0.0000
     41 H           5.8484    6.4915    1.6678 H       1  UNL1        0.0000
     42 H           6.2243    4.8094    1.2800 H       1  UNL1        0.0000
     43 C           3.9637    5.9383    6.5777 C.3     1  UNL1        0.0000
     44 H           4.4731    6.8827    6.7840 H       1  UNL1        0.0000
     45 H           4.0462    5.3160    7.4676 H       1  UNL1        0.0000
     46 H           2.9060    6.1583    6.4134 H       1  UNL1        0.0000
     47 C           3.5364    2.0031   -1.3173 C.ar    1  UNL1        0.0000
     48 H           4.4424    2.0017   -1.9070 H       1  UNL1        0.0000
     49 C           6.9037    2.2450    1.4550 C.3     1  UNL1        0.0000
     50 H           7.1208    1.2220    1.1636 H       1  UNL1        0.0000
     51 H           7.8531    2.7618    1.5457 H       1  UNL1        0.0000
     52 H           6.3473    2.7041    0.6440 H       1  UNL1        0.0000
@<TRIPOS>BOND
     1    34    33    1
     2    48    47    1
     3    33    47   ar
     4    33    27   ar
     5    28    27    1
     6    47     6   ar
     7    27    10   ar
     8     6     7    1
     9     6    16   ar
    10    10    16   ar
    11    10    11    1
    12    52    49    1
    13    16     5    1
    14    50    49    1
    15    42    39    1
    16    49    51    1
    17    49     1    1
    18    26    25    1
    19    41    39    1
    20    39    40    1
    21    39    13    1
    22     5    25   ar
    23     5     4   ar
    24    25    19   ar
    25     2     4    1
    26     2     1    1
    27    24    21    1
    28     4    14   ar
    29     1     8    1
    30     1    29    1
    31    13     8    1
    32    13    12    2
    33    19    20    1
    34    19    17   ar
    35    31    29    1
    36    21    12    1
    37    21    23    1
    38    21    22    1
    39    30    29    1
    40     8     3    1
    41    29    32    1
    42    12     9    1
    43    14    17   ar
    44    14    15    1
    45    17    18    1
    46     3     9    2
    47     3    35    1
    48     9    43    1
    49    37    35    1
    50    46    43    1
    51    36    35    1
    52    35    38    1
    53    43    44    1
    54    43    45    1
