@<TRIPOS>MOLECULE
2,3,5,12,14,15
 52 54 0 0 0
SMALL
GASTEIGER

@<TRIPOS>ATOM
      1 SI          5.1589   10.7697   10.2258 Si      1  UNL1        0.0000
      2 N           6.8252   11.1219    9.8632 N.pl3   1  UNL1        0.0000
      3 C           6.0872    8.4170    7.1154 C.2     1  UNL1        0.0000
      4 C           7.4797   12.3093   10.1422 C.ar    1  UNL1        0.0000
      5 C           5.1916    9.2661    9.0667 C.3     1  UNL1        0.0000
      6 C           7.6868   13.2340    9.1085 C.ar    1  UNL1        0.0000
      7 H           7.3226   12.9788    8.1186 H       1  UNL1        0.0000
      8 C           8.1120   10.4351   12.5082 C.ar    1  UNL1        0.0000
      9 H           8.5516   10.0792   11.5854 H       1  UNL1        0.0000
     10 C           7.1542   12.2276   13.7796 C.ar    1  UNL1        0.0000
     11 H           6.8265   13.2552   13.8489 H       1  UNL1        0.0000
     12 C           5.2590    9.4270    7.6514 C.2     1  UNL1        0.0000
     13 C           7.7022   11.7633   12.5864 C.ar    1  UNL1        0.0000
     14 C           5.9999    8.1354    9.3912 C.2     1  UNL1        0.0000
     15 C           6.5535    7.6135    8.1996 C.2     1  UNL1        0.0000
     16 C           8.4942   13.9046   11.6531 C.ar    1  UNL1        0.0000
     17 H           8.8154   14.1610   12.6532 H       1  UNL1        0.0000
     18 C           7.8880   12.6708   11.4434 C.ar    1  UNL1        0.0000
     19 C           8.7144   14.7887   10.6139 C.ar    1  UNL1        0.0000
     20 H           9.1963   15.7368   10.7995 H       1  UNL1        0.0000
     21 C           7.9787    9.5942   13.5984 C.ar    1  UNL1        0.0000
     22 H           8.3131    8.5678   13.5334 H       1  UNL1        0.0000
     23 C           7.0118   11.3822   14.8644 C.ar    1  UNL1        0.0000
     24 H           6.5783   11.7527   15.7824 H       1  UNL1        0.0000
     25 C           4.6466   10.3850   12.0313 C.3     1  UNL1        0.0000
     26 H           4.5752   11.3065   12.5992 H       1  UNL1        0.0000
     27 H           5.3483    9.7417   12.5479 H       1  UNL1        0.0000
     28 H           3.6717    9.9085   12.0574 H       1  UNL1        0.0000
     29 C           7.4248   10.0633   14.7784 C.ar    1  UNL1        0.0000
     30 H           7.3174    9.4044   15.6276 H       1  UNL1        0.0000
     31 C           7.3252    6.3327    8.0475 C.3     1  UNL1        0.0000
     32 H           6.6481    5.5089    7.8062 H       1  UNL1        0.0000
     33 H           7.8564    6.0787    8.9638 H       1  UNL1        0.0000
     34 H           8.0559    6.4097    7.2417 H       1  UNL1        0.0000
     35 C           4.0432   12.2442    9.7132 C.3     1  UNL1        0.0000
     36 H           4.1108   13.0183   10.4710 H       1  UNL1        0.0000
     37 H           3.0002   11.9582    9.6324 H       1  UNL1        0.0000
     38 H           4.3492   12.6861    8.7709 H       1  UNL1        0.0000
     39 C           6.2799    8.1027    5.6587 C.3     1  UNL1        0.0000
     40 H           5.5121    7.4015    5.3204 H       1  UNL1        0.0000
     41 H           7.2512    7.6415    5.4809 H       1  UNL1        0.0000
     42 H           6.2107    9.0020    5.0481 H       1  UNL1        0.0000
     43 C           8.3029   14.4478    9.3352 C.ar    1  UNL1        0.0000
     44 H           8.4525   15.1372    8.5163 H       1  UNL1        0.0000
     45 C           6.1325    7.5393   10.7645 C.3     1  UNL1        0.0000
     46 H           5.1570    7.5120   11.2493 H       1  UNL1        0.0000
     47 H           6.8034    8.1256   11.3964 H       1  UNL1        0.0000
     48 H           6.5106    6.5191   10.7090 H       1  UNL1        0.0000
     49 C           4.4744   10.4306    6.8533 C.3     1  UNL1        0.0000
     50 H           3.5398   10.6583    7.3624 H       1  UNL1        0.0000
     51 H           4.2376   10.0333    5.8665 H       1  UNL1        0.0000
     52 H           5.0237   11.3675    6.7198 H       1  UNL1        0.0000
@<TRIPOS>BOND
     1    42    39    1
     2    40    39    1
     3    41    39    1
     4    39     3    1
     5    51    49    1
     6    52    49    1
     7    49    50    1
     8    49    12    1
     9     3    12    2
    10     3    15    1
    11    34    31    1
    12    12     5    1
    13    32    31    1
    14    31    15    1
    15    31    33    1
    16     7     6    1
    17    15    14    2
    18    44    43    1
    19    38    35    1
    20     5    14    1
    21     5     1    1
    22     6    43   ar
    23     6     4   ar
    24    43    19   ar
    25    14    45    1
    26    37    35    1
    27    35     1    1
    28    35    36    1
    29     2     4    1
    30     2     1    1
    31     4    18   ar
    32     1    25    1
    33    19    20    1
    34    19    16   ar
    35    48    45    1
    36    45    46    1
    37    45    47    1
    38    18    16   ar
    39    18    13    1
    40     9     8    1
    41    16    17    1
    42    25    28    1
    43    25    27    1
    44    25    26    1
    45     8    13   ar
    46     8    21   ar
    47    13    10   ar
    48    22    21    1
    49    21    29   ar
    50    10    11    1
    51    10    23   ar
    52    29    23   ar
    53    29    30    1
    54    23    24    1
