@<TRIPOS>MOLECULE
2,3,4,6,8,17
 36 38 0 0 0
SMALL
GASTEIGER

@<TRIPOS>ATOM
      1 SI          5.9467   12.5504    6.9848 Si      1  UNL1        0.0000
      2 N           6.7923   11.0292    6.9601 N.pl3   1  UNL1        0.0000
      3 C           4.7571   11.9205    8.3081 C.3     1  UNL1        0.0000
      4 C           3.7998   10.9299    7.9822 C.2     1  UNL1        0.0000
      5 H           3.2363   10.9030    7.0545 H       1  UNL1        0.0000
      6 C           3.6061   10.0536    9.0638 C.2     1  UNL1        0.0000
      7 H           2.8375    9.2904    9.1370 H       1  UNL1        0.0000
      8 C           4.3921   10.5385   10.1500 C.ar    1  UNL1        0.0000
      9 C           4.4612   10.1793   11.5058 C.ar    1  UNL1        0.0000
     10 H           3.8659    9.3562   11.8837 H       1  UNL1        0.0000
     11 C           5.2618   10.9111   12.3497 C.ar    1  UNL1        0.0000
     12 H           5.3111   10.6575   13.3995 H       1  UNL1        0.0000
     13 C           6.0138   11.9975   11.8763 C.ar    1  UNL1        0.0000
     14 H           6.6307   12.5477   12.5735 H       1  UNL1        0.0000
     15 C           5.9610   12.3836   10.5574 C.ar    1  UNL1        0.0000
     16 H           6.5097   13.2519   10.2166 H       1  UNL1        0.0000
     17 C           5.1345   11.6785    9.6677 C.ar    1  UNL1        0.0000
     18 C           4.9893   12.9966    5.3792 C.3     1  UNL1        0.0000
     19 H           4.6456   12.1088    4.8552 H       1  UNL1        0.0000
     20 H           5.6143   13.5568    4.6921 H       1  UNL1        0.0000
     21 H           4.1211   13.6094    5.5998 H       1  UNL1        0.0000
     22 C           7.0317   14.0503    7.4805 C.3     1  UNL1        0.0000
     23 H           7.5088   14.4830    6.6074 H       1  UNL1        0.0000
     24 H           7.8174   13.7630    8.1730 H       1  UNL1        0.0000
     25 H           6.4377   14.8296    7.9462 H       1  UNL1        0.0000
     26 C           7.7998   10.6135    6.1341 C.ar    1  UNL1        0.0000
     27 C           8.3901    9.3475    6.3077 C.ar    1  UNL1        0.0000
     28 H           8.0314    8.7181    7.1196 H       1  UNL1        0.0000
     29 C           9.4008    8.9166    5.4723 C.ar    1  UNL1        0.0000
     30 H           9.8368    7.9387    5.6253 H       1  UNL1        0.0000
     31 C           9.8671    9.7217    4.4440 C.ar    1  UNL1        0.0000
     32 H          10.6585    9.3792    3.7946 H       1  UNL1        0.0000
     33 C           9.3048   10.9748    4.2660 C.ar    1  UNL1        0.0000
     34 H           9.6597   11.6171    3.4720 H       1  UNL1        0.0000
     35 C           8.2919   11.4156    5.0926 C.ar    1  UNL1        0.0000
     36 H           7.8616   12.3951    4.9449 H       1  UNL1        0.0000
@<TRIPOS>BOND
     1    34    33    1
     2    32    31    1
     3    33    31   ar
     4    33    35   ar
     5    31    29   ar
     6    20    18    1
     7    19    18    1
     8    36    35    1
     9    35    26   ar
    10    18    21    1
    11    18     1    1
    12    29    30    1
    13    29    27   ar
    14    26    27   ar
    15    26     2    1
    16    27    28    1
    17    23    22    1
    18     2     1    1
    19     1    22    1
    20     1     3    1
    21     5     4    1
    22    22    25    1
    23    22    24    1
    24     4     3    1
    25     4     6    2
    26     3    17    1
    27     6     7    1
    28     6     8    1
    29    17     8   ar
    30    17    15   ar
    31     8     9   ar
    32    16    15    1
    33    15    13   ar
    34     9    10    1
    35     9    11   ar
    36    13    11   ar
    37    13    14    1
    38    11    12    1
