@<TRIPOS>MOLECULE
1,3,4,6,8,9
 38 39 0 0 0
SMALL
GASTEIGER

@<TRIPOS>ATOM
      1 N           1.6452    3.3388    1.8185 N.3     1  UNL1        0.0000
      2 SI          0.0357    3.7782    1.3662 Si      1  UNL1        0.0000
      3 C          -0.7249    2.3372    2.3177 C.3     1  UNL1        0.0000
      4 C          -0.4715    1.0138    1.8786 C.2     1  UNL1        0.0000
      5 H          -0.4440    0.7171    0.8332 H       1  UNL1        0.0000
      6 C          -0.4058    0.1331    2.9705 C.2     1  UNL1        0.0000
      7 H          -0.3639   -0.9497    2.9186 H       1  UNL1        0.0000
      8 C          -0.7037    0.8854    4.1409 C.ar    1  UNL1        0.0000
      9 C          -0.8718    2.2616    3.7373 C.ar    1  UNL1        0.0000
     10 C          -1.2667    3.2104    4.6948 C.ar    1  UNL1        0.0000
     11 H          -1.4269    4.2400    4.4025 H       1  UNL1        0.0000
     12 C          -1.5124    2.8043    5.9854 C.ar    1  UNL1        0.0000
     13 H          -1.8412    3.5238    6.7230 H       1  UNL1        0.0000
     14 C          -1.3679    1.4614    6.3685 C.ar    1  UNL1        0.0000
     15 H          -1.5924    1.1800    7.3881 H       1  UNL1        0.0000
     16 C          -0.9624    0.5063    5.4675 C.ar    1  UNL1        0.0000
     17 H          -0.8776   -0.5325    5.7643 H       1  UNL1        0.0000
     18 C          -0.5633    5.5131    1.9339 C.3     1  UNL1        0.0000
     19 H          -0.1582    5.7841    2.9043 H       1  UNL1        0.0000
     20 H          -1.6458    5.5464    2.0032 H       1  UNL1        0.0000
     21 H          -0.2609    6.2769    1.2252 H       1  UNL1        0.0000
     22 C          -0.4377    3.6457   -0.4956 C.3     1  UNL1        0.0000
     23 H           0.0224    4.4387   -1.0763 H       1  UNL1        0.0000
     24 H          -1.5115    3.7316   -0.6276 H       1  UNL1        0.0000
     25 H          -0.1282    2.6991   -0.9294 H       1  UNL1        0.0000
     26 C           2.8763    3.8196    1.2221 C.3     1  UNL1        0.0000
     27 C           2.7455    5.2777    0.7565 C.3     1  UNL1        0.0000
     28 H           2.0283    5.3550   -0.0550 H       1  UNL1        0.0000
     29 H           3.7072    5.6476    0.4083 H       1  UNL1        0.0000
     30 H           2.4065    5.9011    1.5796 H       1  UNL1        0.0000
     31 C           3.2335    2.9389    0.0099 C.3     1  UNL1        0.0000
     32 H           3.4139    1.9217    0.3513 H       1  UNL1        0.0000
     33 H           4.1251    3.3120   -0.4897 H       1  UNL1        0.0000
     34 H           2.4092    2.9364   -0.6994 H       1  UNL1        0.0000
     35 C           4.0301    3.7396    2.2377 C.3     1  UNL1        0.0000
     36 H           3.9293    4.5196    2.9891 H       1  UNL1        0.0000
     37 H           4.9845    3.8703    1.7308 H       1  UNL1        0.0000
     38 H           4.0035    2.7658    2.7295 H       1  UNL1        0.0000
@<TRIPOS>BOND
     1    23    22    1
     2    25    22    1
     3    34    31    1
     4    24    22    1
     5    22     2    1
     6    33    31    1
     7    28    27    1
     8    31    32    1
     9    31    26    1
    10    29    27    1
    11    27    26    1
    12    27    30    1
    13     5     4    1
    14    26     1    1
    15    26    35    1
    16    21    18    1
    17     2     1    1
    18     2    18    1
    19     2     3    1
    20    37    35    1
    21     4     3    1
    22     4     6    2
    23    18    20    1
    24    18    19    1
    25    35    38    1
    26    35    36    1
    27     3     9    1
    28     7     6    1
    29     6     8    1
    30     9     8   ar
    31     9    10   ar
    32     8    16   ar
    33    11    10    1
    34    10    12   ar
    35    16    17    1
    36    16    14   ar
    37    12    14   ar
    38    12    13    1
    39    14    15    1
