@<TRIPOS>MOLECULE
1,5,7,9,11
 49 50 0 0 0
SMALL
GASTEIGER

@<TRIPOS>ATOM
      1 N          -0.0413    8.7838   12.9335 N.pl3   1  UNL1        0.0000
      2 N           0.2451    6.5317   11.7536 N.3     1  UNL1        0.0000
      3 B           0.1498    7.3703   12.8941 B       1  UNL1        0.0000
      4 C          -0.1335    6.9358   14.3924 C.3     1  UNL1        0.0000
      5 C           0.4578    7.6045   15.5081 C.3     1  UNL1        0.0000
      6 H           1.5085    7.8632   15.6005 H       1  UNL1        0.0000
      7 C          -0.5162    7.7604   16.5183 C.2     1  UNL1        0.0000
      8 H          -0.3412    8.1384   17.5184 H       1  UNL1        0.0000
      9 C          -1.7275    7.2200   16.0413 C.2     1  UNL1        0.0000
     10 H          -2.6443    7.1195   16.6101 H       1  UNL1        0.0000
     11 C          -1.4957    6.7076   14.7466 C.3     1  UNL1        0.0000
     12 H          -2.2174    6.1693   14.1405 H       1  UNL1        0.0000
     13 C          -0.4012   10.9764   11.9929 C.ar    1  UNL1        0.0000
     14 H          -1.3118   11.0750   12.5837 H       1  UNL1        0.0000
     15 C           0.0155   12.0035   11.1687 C.ar    1  UNL1        0.0000
     16 H          -0.5646   12.9131   11.1152 H       1  UNL1        0.0000
     17 C           1.1706   11.8760   10.4117 C.ar    1  UNL1        0.0000
     18 H           1.4917   12.6838    9.7721 H       1  UNL1        0.0000
     19 C           1.9115   10.7073   10.4849 C.ar    1  UNL1        0.0000
     20 H           2.8149   10.6042    9.9012 H       1  UNL1        0.0000
     21 C           1.5068    9.6714   11.3038 C.ar    1  UNL1        0.0000
     22 H           2.0774    8.7566   11.3725 H       1  UNL1        0.0000
     23 C           0.3420    9.7879   12.0735 C.ar    1  UNL1        0.0000
     24 SI         -0.8044    6.8722   10.3775 Si      1  UNL1        0.0000
     25 C          -2.2092    8.0481   10.9009 C.3     1  UNL1        0.0000
     26 H          -1.9249    9.0894   10.7790 H       1  UNL1        0.0000
     27 H          -2.4825    7.9028   11.9480 H       1  UNL1        0.0000
     28 H          -3.1000    7.8861   10.3015 H       1  UNL1        0.0000
     29 C           0.1720    7.6026    8.9100 C.3     1  UNL1        0.0000
     30 H           1.0468    7.0081    8.6694 H       1  UNL1        0.0000
     31 H           0.5060    8.6150    9.1153 H       1  UNL1        0.0000
     32 H          -0.4541    7.6366    8.0238 H       1  UNL1        0.0000
     33 C          -1.6422    5.2363    9.8610 C.3     1  UNL1        0.0000
     34 H          -0.9253    4.4706    9.5903 H       1  UNL1        0.0000
     35 H          -2.2777    5.4055    8.9979 H       1  UNL1        0.0000
     36 H          -2.2684    4.8371   10.6527 H       1  UNL1        0.0000
     37 SI          1.2339    5.0804   11.9451 Si      1  UNL1        0.0000
     38 C           2.6042    5.4874   13.2082 C.3     1  UNL1        0.0000
     39 H           3.0249    6.4729   13.0318 H       1  UNL1        0.0000
     40 H           3.4155    4.7681   13.1600 H       1  UNL1        0.0000
     41 H           2.2151    5.4761   14.2208 H       1  UNL1        0.0000
     42 C           2.0641    4.6728   10.2799 C.3     1  UNL1        0.0000
     43 H           2.7454    5.4598    9.9729 H       1  UNL1        0.0000
     44 H           1.3456    4.5298    9.4816 H       1  UNL1        0.0000
     45 H           2.6418    3.7588   10.3691 H       1  UNL1        0.0000
     46 C           0.1847    3.6292   12.6020 C.3     1  UNL1        0.0000
     47 H          -0.5647    3.3091   11.8863 H       1  UNL1        0.0000
     48 H          -0.3294    3.9125   13.5159 H       1  UNL1        0.0000
     49 H           0.8090    2.7706   12.8281 H       1  UNL1        0.0000
@<TRIPOS>BOND
     1    32    29    1
     2    30    29    1
     3    29    31    1
     4    29    24    1
     5    35    33    1
     6    44    42    1
     7    34    33    1
     8    18    17    1
     9    33    24    1
    10    33    36    1
    11    20    19    1
    12    43    42    1
    13    42    45    1
    14    42    37    1
    15    28    25    1
    16    24    25    1
    17    24     2    1
    18    17    19   ar
    19    17    15   ar
    20    19    21   ar
    21    26    25    1
    22    25    27    1
    23    16    15    1
    24    15    13   ar
    25    21    22    1
    26    21    23   ar
    27     2    37    1
    28     2     3    1
    29    47    46    1
    30    37    46    1
    31    37    38    1
    32    13    23   ar
    33    13    14    1
    34    23     1    1
    35    46    49    1
    36    46    48    1
    37     3     1    1
    38     3     4    1
    39    39    38    1
    40    40    38    1
    41    38    41    1
    42    12    11    1
    43     4    11    1
    44     4     5    1
    45    11     9    1
    46     5     6    1
    47     5     7    1
    48     9     7    2
    49     9    10    1
    50     7     8    1
