@<TRIPOS>MOLECULE
2,4,5,6,7
 32 32 0 0 0
SMALL
GASTEIGER

@<TRIPOS>ATOM
      1 SI          5.6964   -1.0836   12.0107 Si      1  UNL1        0.0000
      2 N           4.9816   -0.6751   10.4733 N.3     1  UNL1        0.0000
      3 C           4.3280   -0.1950   12.9548 C.3     1  UNL1        0.0000
      4 C           4.2282    1.2192   12.9624 C.3     1  UNL1        0.0000
      5 C           2.8737    1.5770   13.0892 C.2     1  UNL1        0.0000
      6 C           2.1128    0.3981   13.1000 C.2     1  UNL1        0.0000
      7 C           2.9968   -0.6906   12.9788 C.3     1  UNL1        0.0000
      8 C           5.7631   -2.9410   12.4962 C.3     1  UNL1        0.0000
      9 C           7.4142   -0.3032   12.3630 C.3     1  UNL1        0.0000
     10 C           5.4021   -1.2646    9.2131 C.3     1  UNL1        0.0000
     11 C           6.9101   -1.5577    9.2019 C.3     1  UNL1        0.0000
     12 C           4.6353   -2.5812    8.9892 C.3     1  UNL1        0.0000
     13 C           5.1162   -0.3051    8.0459 C.3     1  UNL1        0.0000
     14 H           5.0704    1.9027   13.0133 H       1  UNL1        0.0000
     15 H           2.4912    2.5770   13.2460 H       1  UNL1        0.0000
     16 H           1.0455    0.3362   13.2719 H       1  UNL1        0.0000
     17 H           2.7216   -1.7391   13.0540 H       1  UNL1        0.0000
     18 H           5.9798   -3.0529   13.5536 H       1  UNL1        0.0000
     19 H           6.5369   -3.4709   11.9504 H       1  UNL1        0.0000
     20 H           4.8173   -3.4371   12.2981 H       1  UNL1        0.0000
     21 H           8.2194   -0.9061   11.9580 H       1  UNL1        0.0000
     22 H           7.5814   -0.2111   13.4312 H       1  UNL1        0.0000
     23 H           7.4898    0.6895   11.9280 H       1  UNL1        0.0000
     24 H           7.1644   -2.2907    9.9604 H       1  UNL1        0.0000
     25 H           7.4638   -0.6441    9.3994 H       1  UNL1        0.0000
     26 H           7.2096   -1.9481    8.2319 H       1  UNL1        0.0000
     27 H           4.9445   -3.3159    9.7276 H       1  UNL1        0.0000
     28 H           4.8317   -2.9777    7.9954 H       1  UNL1        0.0000
     29 H           3.5646   -2.4042    9.1037 H       1  UNL1        0.0000
     30 H           4.0432   -0.1647    7.9191 H       1  UNL1        0.0000
     31 H           5.5225   -0.7104    7.1210 H       1  UNL1        0.0000
     32 H           5.5887    0.6575    8.2433 H       1  UNL1        0.0000
@<TRIPOS>BOND
     1    31    13    1
     2    30    13    1
     3    28    12    1
     4    13    32    1
     5    13    10    1
     6    26    11    1
     7    12    29    1
     8    12    10    1
     9    12    27    1
    10    11    10    1
    11    11    25    1
    12    11    24    1
    13    10     2    1
    14     2     1    1
    15    23     9    1
    16    19     8    1
    17    21     9    1
    18     1     9    1
    19     1     8    1
    20     1     3    1
    21    20     8    1
    22     9    22    1
    23     8    18    1
    24     3     4    1
    25     3     7    1
    26     4    14    1
    27     4     5    1
    28     7    17    1
    29     7     6    1
    30     5     6    2
    31     5    15    1
    32     6    16    1
