@<TRIPOS>MOLECULE
3,4,5,6,7,8
 34 34 0 0 0
SMALL
GASTEIGER

@<TRIPOS>ATOM
      1 SI         -1.0333    4.9728   -0.5711 Si      1  UNL1        0.0000
      2 N          -1.6056    3.3530   -0.8637 N.3     1  UNL1        0.0000
      3 N          -0.8172    2.2360    1.7495 N.3     1  UNL1        0.0000
      4 C           0.2424    5.0238    0.8240 C.3     1  UNL1        0.0000
      5 C           0.0312    5.2519    2.2165 C.3     1  UNL1        0.0000
      6 C           1.2780    5.2131    2.8737 C.2     1  UNL1        0.0000
      7 C           2.2696    4.9335    1.9145 C.2     1  UNL1        0.0000
      8 C           1.6399    4.8199    0.6602 C.3     1  UNL1        0.0000
      9 C          -2.5395    6.0618   -0.1422 C.3     1  UNL1        0.0000
     10 C          -0.2326    5.6090   -2.1783 C.3     1  UNL1        0.0000
     11 C          -2.5711    2.7678    0.0372 C.3     1  UNL1        0.0000
     12 C          -2.1410    2.7691    1.5288 C.3     1  UNL1        0.0000
     13 C          -0.6979    2.3901   -1.4597 C.3     1  UNL1        0.0000
     14 C          -0.8489    0.7977    1.9454 C.3     1  UNL1        0.0000
     15 H          -0.8962    5.5843    2.6701 H       1  UNL1        0.0000
     16 H           1.4506    5.4362    3.9195 H       1  UNL1        0.0000
     17 H           3.3373    4.8980    2.0963 H       1  UNL1        0.0000
     18 H           2.1480    4.7033   -0.2900 H       1  UNL1        0.0000
     19 H          -3.0109    5.7897    0.7959 H       1  UNL1        0.0000
     20 H          -3.2910    5.9934   -0.9210 H       1  UNL1        0.0000
     21 H          -2.2419    7.1021   -0.0675 H       1  UNL1        0.0000
     22 H          -0.8794    5.4297   -3.0300 H       1  UNL1        0.0000
     23 H           0.7242    5.1411   -2.3828 H       1  UNL1        0.0000
     24 H          -0.0625    6.6780   -2.1146 H       1  UNL1        0.0000
     25 H          -2.7685    1.7414   -0.2835 H       1  UNL1        0.0000
     26 H          -3.5049    3.3319   -0.0357 H       1  UNL1        0.0000
     27 H          -2.1783    3.8021    1.8910 H       1  UNL1        0.0000
     28 H          -2.8819    2.1856    2.0975 H       1  UNL1        0.0000
     29 H          -0.1176    2.8836   -2.2344 H       1  UNL1        0.0000
     30 H          -1.2740    1.5874   -1.9249 H       1  UNL1        0.0000
     31 H          -0.0050    1.9521   -0.7259 H       1  UNL1        0.0000
     32 H           0.1662    0.3920    2.0046 H       1  UNL1        0.0000
     33 H          -1.3736    0.3019    1.1171 H       1  UNL1        0.0000
     34 H          -1.3757    0.5546    2.8819 H       1  UNL1        0.0000
@<TRIPOS>BOND
     1    22    10    1
     2    23    10    1
     3    29    13    1
     4    10    24    1
     5    10     1    1
     6    30    13    1
     7    13     2    1
     8    13    31    1
     9    20     9    1
    10     2     1    1
    11     2    11    1
    12     1     9    1
    13     1     4    1
    14    18     8    1
    15    25    11    1
    16     9    21    1
    17     9    19    1
    18    26    11    1
    19    11    12    1
    20     8     4    1
    21     8     7    1
    22     4     5    1
    23    33    14    1
    24    12     3    1
    25    12    27    1
    26    12    28    1
    27     3    14    1
    28     7    17    1
    29     7     6    2
    30    14    32    1
    31    14    34    1
    32     5    15    1
    33     5     6    1
    34     6    16    1
