@<TRIPOS>MOLECULE
2,3,4,5,7,8
 38 38 0 0 0
SMALL
GASTEIGER

@<TRIPOS>ATOM
      1 SI         -2.0213   15.9737    9.2002 Si      1  UNL1        0.0000
      2 N          -1.4295   14.3549    9.0981 N.3     1  UNL1        0.0000
      3 C          -5.0644   13.7582   10.6851 C.2     1  UNL1        0.0000
      4 C          -5.3615   13.7027    9.2942 C.2     1  UNL1        0.0000
      5 C          -4.5640   14.6787    8.6456 C.2     1  UNL1        0.0000
      6 H          -4.6132   14.9266    7.5897 H       1  UNL1        0.0000
      7 C          -3.7805   15.3670    9.6161 C.3     1  UNL1        0.0000
      8 C          -4.0799   14.7608   10.8738 C.2     1  UNL1        0.0000
      9 H          -3.7032   15.0924   11.8376 H       1  UNL1        0.0000
     10 C          -5.7451   12.9515   11.7558 C.3     1  UNL1        0.0000
     11 H          -6.7845   13.2675   11.8698 H       1  UNL1        0.0000
     12 H          -5.2393   13.0823   12.7121 H       1  UNL1        0.0000
     13 H          -5.7451   11.8869   11.5070 H       1  UNL1        0.0000
     14 C          -6.3839   12.8059    8.6532 C.3     1  UNL1        0.0000
     15 H          -6.2128   11.7597    8.9240 H       1  UNL1        0.0000
     16 H          -6.3362   12.8924    7.5680 H       1  UNL1        0.0000
     17 H          -7.3912   13.0760    8.9781 H       1  UNL1        0.0000
     18 C          -0.0895   13.8326    9.2729 C.3     1  UNL1        0.0000
     19 C          -0.0800   12.3798    8.7441 C.3     1  UNL1        0.0000
     20 H           0.9314   11.9752    8.7605 H       1  UNL1        0.0000
     21 H          -0.4467   12.3652    7.7121 H       1  UNL1        0.0000
     22 H          -0.7199   11.7371    9.3694 H       1  UNL1        0.0000
     23 C           0.9387   14.6611    8.4916 C.3     1  UNL1        0.0000
     24 H           0.9503   15.6819    8.8631 H       1  UNL1        0.0000
     25 H           0.6656   14.6805    7.4395 H       1  UNL1        0.0000
     26 H           1.9338   14.2359    8.5952 H       1  UNL1        0.0000
     27 C           0.2654   13.8254   10.7746 C.3     1  UNL1        0.0000
     28 H          -0.5409   13.3397   11.3386 H       1  UNL1        0.0000
     29 H           0.3744   14.8469   11.1316 H       1  UNL1        0.0000
     30 H           1.1968   13.2913   10.9504 H       1  UNL1        0.0000
     31 C          -1.9593   16.9222    7.5387 C.3     1  UNL1        0.0000
     32 H          -0.9690   17.3226    7.3508 H       1  UNL1        0.0000
     33 H          -2.6543   17.7545    7.5385 H       1  UNL1        0.0000
     34 H          -2.2155   16.2712    6.7082 H       1  UNL1        0.0000
     35 C          -1.3646   17.1215   10.5894 C.3     1  UNL1        0.0000
     36 H          -1.4038   16.6433   11.5635 H       1  UNL1        0.0000
     37 H          -1.9515   18.0318   10.6445 H       1  UNL1        0.0000
     38 H          -0.3360   17.4118   10.4024 H       1  UNL1        0.0000
@<TRIPOS>BOND
     1    34    31    1
     2    32    31    1
     3    25    23    1
     4    33    31    1
     5    31     1    1
     6    16    14    1
     7     6     5    1
     8    21    19    1
     9    23    26    1
    10    23    24    1
    11    23    18    1
    12     5     4    2
    13     5     7    1
    14    14    15    1
    15    14    17    1
    16    14     4    1
    17    19    20    1
    18    19    18    1
    19    19    22    1
    20     2     1    1
    21     2    18    1
    22     1     7    1
    23     1    35    1
    24    18    27    1
    25     4     3    1
    26     7     8    1
    27    38    35    1
    28    35    37    1
    29    35    36    1
    30     3     8    2
    31     3    10    1
    32    27    30    1
    33    27    29    1
    34    27    28    1
    35     8     9    1
    36    13    10    1
    37    10    11    1
    38    10    12    1
