@<TRIPOS>MOLECULE
2,11,12,14,15,16
 38 38 0 0 0
SMALL
GASTEIGER

@<TRIPOS>ATOM
      1 SI          1.4034   -0.2243    6.7890 Si      1  UNL1        0.0000
      2 N           1.8010    1.4712    6.7513 N.3     1  UNL1        0.0000
      3 C           1.4607   -1.0096    8.5326 C.3     1  UNL1        0.0000
      4 H           2.4592   -1.3509    8.7824 H       1  UNL1        0.0000
      5 H           0.7990   -1.8674    8.5898 H       1  UNL1        0.0000
      6 H           1.1519   -0.2961    9.2918 H       1  UNL1        0.0000
      7 C           2.2522   -1.3688    5.5115 C.3     1  UNL1        0.0000
      8 H           2.2455   -0.9368    4.5155 H       1  UNL1        0.0000
      9 H           1.7414   -2.3245    5.4620 H       1  UNL1        0.0000
     10 H           3.2839   -1.5671    5.7819 H       1  UNL1        0.0000
     11 C          -0.3721    0.2044    6.2733 C.3     1  UNL1        0.0000
     12 C          -0.6307    0.7960    5.0027 C.2     1  UNL1        0.0000
     13 H          -0.1714    0.4969    4.0655 H       1  UNL1        0.0000
     14 C          -1.7006    1.7147    5.1267 C.2     1  UNL1        0.0000
     15 C          -2.0856    1.7434    6.4899 C.2     1  UNL1        0.0000
     16 C          -1.2587    0.8324    7.1892 C.2     1  UNL1        0.0000
     17 H          -1.3598    0.5775    8.2388 H       1  UNL1        0.0000
     18 C          -2.3785    2.4461    4.0077 C.3     1  UNL1        0.0000
     19 H          -1.7771    2.4000    3.1007 H       1  UNL1        0.0000
     20 H          -2.5412    3.4944    4.2634 H       1  UNL1        0.0000
     21 H          -3.3526    1.9964    3.8017 H       1  UNL1        0.0000
     22 C          -3.2253    2.5298    7.0630 C.3     1  UNL1        0.0000
     23 H          -3.1990    2.5000    8.1513 H       1  UNL1        0.0000
     24 H          -4.1781    2.1149    6.7262 H       1  UNL1        0.0000
     25 H          -3.1821    3.5728    6.7437 H       1  UNL1        0.0000
     26 C           3.1265    2.0612    6.7830 C.3     1  UNL1        0.0000
     27 C           3.6848    2.0960    5.3490 C.3     1  UNL1        0.0000
     28 H           3.8220    1.0822    4.9803 H       1  UNL1        0.0000
     29 H           4.6406    2.6135    5.3238 H       1  UNL1        0.0000
     30 H           2.9812    2.6155    4.6958 H       1  UNL1        0.0000
     31 C           3.0550    3.4941    7.3387 C.3     1  UNL1        0.0000
     32 H           4.0545    3.9215    7.3928 H       1  UNL1        0.0000
     33 H           2.6255    3.4814    8.3421 H       1  UNL1        0.0000
     34 H           2.4418    4.1305    6.6939 H       1  UNL1        0.0000
     35 C           4.0648    1.2446    7.6818 C.3     1  UNL1        0.0000
     36 H           4.1911    0.2406    7.2867 H       1  UNL1        0.0000
     37 H           3.6469    1.1776    8.6830 H       1  UNL1        0.0000
     38 H           5.0398    1.7222    7.7372 H       1  UNL1        0.0000
@<TRIPOS>BOND
     1    19    18    1
     2    21    18    1
     3    18    20    1
     4    18    14    1
     5    13    12    1
     6     8     7    1
     7    30    27    1
     8    28    27    1
     9    12    14    2
    10    12    11    1
    11    14    15    1
    12    29    27    1
    13    27    26    1
    14     9     7    1
    15     7    10    1
    16     7     1    1
    17    11     1    1
    18    11    16    1
    19    15    22    1
    20    15    16    2
    21    34    31    1
    22    24    22    1
    23    25    22    1
    24     2    26    1
    25     2     1    1
    26    26    31    1
    27    26    35    1
    28     1     3    1
    29    22    23    1
    30    16    17    1
    31    36    35    1
    32    31    32    1
    33    31    33    1
    34    35    38    1
    35    35    37    1
    36     3     5    1
    37     3     4    1
    38     3     6    1
