@<TRIPOS>MOLECULE
1,2,4,6,8,19
 32 32 0 0 0
SMALL
GASTEIGER

@<TRIPOS>ATOM
      1 C           6.2141    3.7140    5.2743 C.3     1  UNL1        0.0000
      2 C           5.3555    2.9013    4.4786 C.2     1  UNL1        0.0000
      3 H           4.5940    2.2470    4.8860 H       1  UNL1        0.0000
      4 C           5.4394    3.3402    3.1410 C.2     1  UNL1        0.0000
      5 H           4.7915    3.0410    2.3270 H       1  UNL1        0.0000
      6 C           6.3824    4.3829    3.0830 C.2     1  UNL1        0.0000
      7 H           6.5849    5.0037    2.2215 H       1  UNL1        0.0000
      8 C           6.8640    4.6041    4.3837 C.2     1  UNL1        0.0000
      9 H           7.5384    5.3999    4.6774 H       1  UNL1        0.0000
     10 SI          6.9477    3.2169    6.9437 Si      1  UNL1        0.0000
     11 C           7.7082    4.8158    7.6961 C.3     1  UNL1        0.0000
     12 H           7.9673    4.6979    8.7427 H       1  UNL1        0.0000
     13 H           7.0068    5.6418    7.6257 H       1  UNL1        0.0000
     14 H           8.6095    5.1047    7.1620 H       1  UNL1        0.0000
     15 C           5.5996    2.6037    8.1702 C.3     1  UNL1        0.0000
     16 H           6.0330    2.3664    9.1359 H       1  UNL1        0.0000
     17 H           5.0919    1.7136    7.8116 H       1  UNL1        0.0000
     18 H           4.8500    3.3702    8.3309 H       1  UNL1        0.0000
     19 N           7.9693    1.9886    6.2803 N.3     1  UNL1        0.0000
     20 C           8.9592    1.2682    7.0840 C.3     1  UNL1        0.0000
     21 C          10.2155    0.9472    6.2501 C.3     1  UNL1        0.0000
     22 H          10.5517    1.8441    5.7284 H       1  UNL1        0.0000
     23 H          10.0270    0.1548    5.5309 H       1  UNL1        0.0000
     24 H          11.0168    0.6155    6.9085 H       1  UNL1        0.0000
     25 C           9.4303    2.0924    8.2923 C.3     1  UNL1        0.0000
     26 H           9.8610    3.0291    7.9520 H       1  UNL1        0.0000
     27 H          10.1837    1.5418    8.8517 H       1  UNL1        0.0000
     28 H           8.5990    2.3054    8.9566 H       1  UNL1        0.0000
     29 C           8.3452   -0.0408    7.6160 C.3     1  UNL1        0.0000
     30 H           7.4838    0.1876    8.2384 H       1  UNL1        0.0000
     31 H           9.0735   -0.5894    8.2089 H       1  UNL1        0.0000
     32 H           8.0173   -0.6705    6.7930 H       1  UNL1        0.0000
@<TRIPOS>BOND
     1     7     6    1
     2     5     4    1
     3     6     4    1
     4     6     8    2
     5     4     2    2
     6     8     9    1
     7     8     1    1
     8     2     3    1
     9     2     1    1
    10     1    10    1
    11    23    21    1
    12    22    21    1
    13    21    24    1
    14    21    20    1
    15    19    10    1
    16    19    20    1
    17    32    29    1
    18    10    11    1
    19    10    15    1
    20    20    29    1
    21    20    25    1
    22    14    11    1
    23    29    31    1
    24    29    30    1
    25    13    11    1
    26    11    12    1
    27    17    15    1
    28    26    25    1
    29    15    18    1
    30    15    16    1
    31    25    27    1
    32    25    28    1
