@<TRIPOS>MOLECULE
4,8,9,10,11,13
 66 67 0 0 0
SMALL
GASTEIGER

@<TRIPOS>ATOM
      1 S           0.8324   15.3428   10.0533 S.3     1  UNL1        0.0000
      2 S          -4.8934   12.0514   10.8973 S.3     1  UNL1        0.0000
      3 SI         -1.9175    9.4405    5.3584 Si      1  UNL1        0.0000
      4 N          -0.3847    9.5747    6.1605 N.3     1  UNL1        0.0000
      5 N          -2.5217   13.9514    8.1418 N.pl3   1  UNL1        0.0000
      6 C          -0.4602   14.5368    5.6605 C.ar    1  UNL1        0.0000
      7 H          -0.4557   15.4332    6.2616 H       1  UNL1        0.0000
      8 C          -1.2664   12.2862    5.1129 C.ar    1  UNL1        0.0000
      9 C          -2.1826   11.3060    5.6168 C.3     1  UNL1        0.0000
     10 C          -1.2379   13.4188    6.0175 C.ar    1  UNL1        0.0000
     11 C          -2.1217   13.1094    7.1163 C.2     1  UNL1        0.0000
     12 C           0.7331    8.6532    6.1628 C.3     1  UNL1        0.0000
     13 C          -2.6541   11.8217    6.8543 C.2     1  UNL1        0.0000
     14 H          -3.4042   11.3193    7.4508 H       1  UNL1        0.0000
     15 C           0.3097   13.3816    3.6729 C.ar    1  UNL1        0.0000
     16 H           0.9289   13.3966    2.7881 H       1  UNL1        0.0000
     17 C          -0.4663   12.2865    3.9535 C.ar    1  UNL1        0.0000
     18 H          -0.4999   11.4385    3.2820 H       1  UNL1        0.0000
     19 C          -1.5768   14.8541    8.7700 C.3     1  UNL1        0.0000
     20 H          -1.2344   15.5893    8.0378 H       1  UNL1        0.0000
     21 H          -2.1056   15.4011    9.5533 H       1  UNL1        0.0000
     22 C           0.2976   14.5048    4.5163 C.ar    1  UNL1        0.0000
     23 H           0.8969   15.3635    4.2526 H       1  UNL1        0.0000
     24 C           1.4446    8.6859    7.5278 C.3     1  UNL1        0.0000
     25 H           1.8431    9.6837    7.7380 H       1  UNL1        0.0000
     26 H           0.7439    8.4074    8.3173 H       1  UNL1        0.0000
     27 H           2.2721    7.9792    7.5334 H       1  UNL1        0.0000
     28 C          -0.3661   14.1478    9.3849 C.3     1  UNL1        0.0000
     29 H           0.1576   13.5317    8.6452 H       1  UNL1        0.0000
     30 H          -0.6605   13.5182   10.2245 H       1  UNL1        0.0000
     31 C           0.2585    7.2173    5.9045 C.3     1  UNL1        0.0000
     32 H          -0.4690    6.9301    6.6594 H       1  UNL1        0.0000
     33 H          -0.2030    7.1410    4.9244 H       1  UNL1        0.0000
     34 H           1.1011    6.5317    5.9478 H       1  UNL1        0.0000
     35 C          -3.6820   13.5982    8.9307 C.3     1  UNL1        0.0000
     36 H          -4.1540   14.5275    9.2668 H       1  UNL1        0.0000
     37 H          -4.3964   13.0920    8.2777 H       1  UNL1        0.0000
     38 C           1.8104   15.7092    8.5463 C.3     1  UNL1        0.0000
     39 H           1.9811   14.7619    8.0338 H       1  UNL1        0.0000
     40 H           1.2216   16.3722    7.9107 H       1  UNL1        0.0000
     41 C           1.7183    9.0753    5.0571 C.3     1  UNL1        0.0000
     42 H           1.2435    8.9790    4.0828 H       1  UNL1        0.0000
     43 H           2.0125   10.1170    5.1990 H       1  UNL1        0.0000
     44 H           2.6081    8.4510    5.0783 H       1  UNL1        0.0000
     45 C          -5.1629   10.5533    9.8866 C.3     1  UNL1        0.0000
     46 H          -6.1648   10.2273   10.1646 H       1  UNL1        0.0000
     47 H          -5.1740   10.8492    8.8371 H       1  UNL1        0.0000
     48 C          -3.3753   12.7281   10.1532 C.3     1  UNL1        0.0000
     49 H          -2.9156   13.3192   10.9442 H       1  UNL1        0.0000
     50 H          -2.7141   11.9000    9.8996 H       1  UNL1        0.0000
     51 C          -3.1970    8.4478    6.3804 C.3     1  UNL1        0.0000
     52 H          -3.0180    8.5786    7.4449 H       1  UNL1        0.0000
     53 H          -4.2109    8.7683    6.1637 H       1  UNL1        0.0000
     54 H          -3.1389    7.3872    6.1606 H       1  UNL1        0.0000
     55 C          -1.9869    8.8855    3.5293 C.3     1  UNL1        0.0000
     56 H          -2.7754    9.4083    2.9984 H       1  UNL1        0.0000
     57 H          -1.0560    9.0688    3.0030 H       1  UNL1        0.0000
     58 H          -2.1988    7.8240    3.4631 H       1  UNL1        0.0000
     59 C          -4.1471    9.4598   10.1583 C.3     1  UNL1        0.0000
     60 H          -4.4236    8.5601    9.6110 H       1  UNL1        0.0000
     61 H          -3.1446    9.7559    9.8519 H       1  UNL1        0.0000
     62 H          -4.1265    9.2274   11.2203 H       1  UNL1        0.0000
     63 C           3.1229   16.3635    8.9311 C.3     1  UNL1        0.0000
     64 H           3.7063   16.5762    8.0376 H       1  UNL1        0.0000
     65 H           2.9423   17.2944    9.4639 H       1  UNL1        0.0000
     66 H           3.6971   15.7035    9.5765 H       1  UNL1        0.0000
@<TRIPOS>BOND
     1    16    15    1
     2    56    55    1
     3    57    55    1
     4    18    17    1
     5    58    55    1
     6    55     3    1
     7    15    17   ar
     8    15    22   ar
     9    17     8   ar
    10    42    41    1
    11    23    22    1
    12    22     6   ar
    13    33    31    1
    14    41    44    1
    15    41    43    1
    16    41    12    1
    17     8     9    1
    18     8    10   ar
    19     3     9    1
    20     3     4    1
    21     3    51    1
    22     9    13    1
    23     6    10   ar
    24     6     7    1
    25    31    34    1
    26    31    12    1
    27    31    32    1
    28    10    11    1
    29     4    12    1
    30    54    51    1
    31    12    24    1
    32    53    51    1
    33    51    52    1
    34    13    11    2
    35    13    14    1
    36    11     5    1
    37    24    27    1
    38    24    25    1
    39    24    26    1
    40    40    38    1
    41    39    38    1
    42    64    63    1
    43    20    19    1
    44     5    19    1
    45     5    35    1
    46    37    35    1
    47    38    63    1
    48    38     1    1
    49    29    28    1
    50    19    28    1
    51    19    21    1
    52    47    45    1
    53    35    36    1
    54    35    48    1
    55    63    65    1
    56    63    66    1
    57    28     1    1
    58    28    30    1
    59    60    59    1
    60    61    59    1
    61    45    59    1
    62    45    46    1
    63    45     2    1
    64    50    48    1
    65    48     2    1
    66    48    49    1
    67    59    62    1
