@<TRIPOS>MOLECULE
3,5,6,7,8,9
 38 39 0 0 0
SMALL
GASTEIGER

@<TRIPOS>ATOM
      1 S           1.0671   14.3155    9.7127 S.2     1  UNL1        0.0000
      2 SI          1.0286    9.9859    8.9697 Si      1  UNL1        0.0000
      3 N           1.4030   11.6924    9.1497 N.pl3   1  UNL1        0.0000
      4 N          -0.7755   12.5328    9.3251 N.ar    1  UNL1        0.0000
      5 C           2.8844    9.6596    8.7313 C.3     1  UNL1        0.0000
      6 C           3.7933    9.5384    9.8193 C.2     1  UNL1        0.0000
      7 C           5.0117   10.1542    9.4587 C.2     1  UNL1        0.0000
      8 C           4.8747   10.6577    8.1257 C.2     1  UNL1        0.0000
      9 C           3.5750   10.3483    7.6810 C.2     1  UNL1        0.0000
     10 C           3.5645    8.7403   11.0723 C.3     1  UNL1        0.0000
     11 H           4.4314    8.1099   11.2790 H       1  UNL1        0.0000
     12 H           2.6988    8.0944   10.9480 H       1  UNL1        0.0000
     13 H           3.3980    9.3783   11.9427 H       1  UNL1        0.0000
     14 C           6.3282   10.0217   10.1744 C.3     1  UNL1        0.0000
     15 H           6.1872    9.8411   11.2384 H       1  UNL1        0.0000
     16 H           6.9458   10.9123   10.0493 H       1  UNL1        0.0000
     17 H           6.8870    9.1762    9.7612 H       1  UNL1        0.0000
     18 C           6.0248   11.2087    7.3277 C.3     1  UNL1        0.0000
     19 H           6.7733   10.4294    7.1612 H       1  UNL1        0.0000
     20 H           6.5129   12.0322    7.8548 H       1  UNL1        0.0000
     21 H           5.6978   11.5712    6.3549 H       1  UNL1        0.0000
     22 C           3.0466   10.5029    6.2823 C.3     1  UNL1        0.0000
     23 H           3.7274   11.0823    5.6605 H       1  UNL1        0.0000
     24 H           2.0692   10.9870    6.2687 H       1  UNL1        0.0000
     25 H           2.9346    9.5169    5.8244 H       1  UNL1        0.0000
     26 C           0.2124    9.3004   10.5614 C.3     1  UNL1        0.0000
     27 H           0.7615    9.5660   11.4592 H       1  UNL1        0.0000
     28 H           0.1138    8.2205   10.5279 H       1  UNL1        0.0000
     29 H          -0.7854    9.7195   10.6464 H       1  UNL1        0.0000
     30 C          -0.1721    9.5682    7.5411 C.3     1  UNL1        0.0000
     31 H          -1.0007   10.2689    7.5652 H       1  UNL1        0.0000
     32 H          -0.5763    8.5701    7.6726 H       1  UNL1        0.0000
     33 H           0.2794    9.6137    6.5568 H       1  UNL1        0.0000
     34 C           0.5152   12.6508    9.3514 C.ar    1  UNL1        0.0000
     35 C          -0.6089   14.7756    9.8042 C.ar    1  UNL1        0.0000
     36 H          -0.8884   15.7878   10.0115 H       1  UNL1        0.0000
     37 C          -1.4053   13.7081    9.5701 C.ar    1  UNL1        0.0000
     38 H          -2.4815   13.7192    9.5670 H       1  UNL1        0.0000
@<TRIPOS>BOND
     1    23    22    1
     2    25    22    1
     3    24    22    1
     4    22     9    1
     5    21    18    1
     6    33    30    1
     7    19    18    1
     8    18    20    1
     9    18     8    1
    10    30    31    1
    11    30    32    1
    12    30     2    1
    13     9     8    2
    14     9     5    1
    15     8     7    1
    16     5     2    1
    17     5     6    1
    18     2     3    1
    19     2    26    1
    20     3    34    1
    21     4    34   ar
    22     4    37   ar
    23    34     1   ar
    24     7     6    2
    25     7    14    1
    26    38    37    1
    27    37    35   ar
    28     1    35   ar
    29    17    14    1
    30    35    36    1
    31     6    10    1
    32    16    14    1
    33    14    15    1
    34    28    26    1
    35    26    29    1
    36    26    27    1
    37    12    10    1
    38    10    11    1
    39    10    13    1
