@<TRIPOS>MOLECULE
2,5,6,7,8,9
 40 41 0 0 0
SMALL
GASTEIGER

@<TRIPOS>ATOM
      1 SI         -4.9636    3.0780   38.1210 Si      1  UNL1        0.0000
      2 N          -3.2348    3.3166   38.2396 N.pl3   1  UNL1        0.0000
      3 N          -3.2078    3.7468   40.5030 N.ar    1  UNL1        0.0000
      4 N          -1.2137    3.7809   39.1863 N.ar    1  UNL1        0.0000
      5 C          -4.8309    3.3784   36.2514 C.3     1  UNL1        0.0000
      6 C          -4.5490    2.3479   35.3168 C.3     1  UNL1        0.0000
      7 C          -3.7003    2.8720   34.3121 C.2     1  UNL1        0.0000
      8 C          -3.4655    4.2505   34.6095 C.2     1  UNL1        0.0000
      9 C          -4.1493    4.5556   35.8034 C.3     1  UNL1        0.0000
     10 C          -5.2271    1.0061   35.3165 C.3     1  UNL1        0.0000
     11 H          -5.2663    0.5892   34.3102 H       1  UNL1        0.0000
     12 H          -6.2501    1.1210   35.6727 H       1  UNL1        0.0000
     13 H          -4.7277    0.2864   35.9645 H       1  UNL1        0.0000
     14 C          -3.3109    2.2498   32.9976 C.3     1  UNL1        0.0000
     15 H          -3.6813    2.8650   32.1740 H       1  UNL1        0.0000
     16 H          -3.7366    1.2541   32.8838 H       1  UNL1        0.0000
     17 H          -2.2255    2.1763   32.8940 H       1  UNL1        0.0000
     18 C          -2.7956    5.2014   33.6567 C.3     1  UNL1        0.0000
     19 H          -3.4592    5.4148   32.8135 H       1  UNL1        0.0000
     20 H          -1.8765    4.7702   33.2580 H       1  UNL1        0.0000
     21 H          -2.5541    6.1471   34.1387 H       1  UNL1        0.0000
     22 C          -4.2916    5.9131   36.4338 C.3     1  UNL1        0.0000
     23 H          -3.6550    6.6480   35.9417 H       1  UNL1        0.0000
     24 H          -4.0387    5.8875   37.4964 H       1  UNL1        0.0000
     25 H          -5.3252    6.2564   36.3452 H       1  UNL1        0.0000
     26 C          -5.3584    1.2905   38.6810 C.3     1  UNL1        0.0000
     27 H          -4.5992    0.5952   38.3320 H       1  UNL1        0.0000
     28 H          -6.3253    0.9521   38.3262 H       1  UNL1        0.0000
     29 H          -5.3712    1.2503   39.7653 H       1  UNL1        0.0000
     30 C          -6.1125    4.2648   39.0819 C.3     1  UNL1        0.0000
     31 H          -5.7885    4.3122   40.1152 H       1  UNL1        0.0000
     32 H          -7.1340    3.9000   39.0649 H       1  UNL1        0.0000
     33 H          -6.1139    5.2732   38.6844 H       1  UNL1        0.0000
     34 C          -2.5535    3.6121   39.3283 C.ar    1  UNL1        0.0000
     35 C          -2.4934    4.0601   41.5595 C.ar    1  UNL1        0.0000
     36 H          -3.0481    4.1598   42.4867 H       1  UNL1        0.0000
     37 C          -1.1187    4.2560   41.5145 C.ar    1  UNL1        0.0000
     38 H          -0.5467    4.5134   42.3898 H       1  UNL1        0.0000
     39 C          -0.5312    4.0957   40.2672 C.ar    1  UNL1        0.0000
     40 H           0.5379    4.2238   40.1284 H       1  UNL1        0.0000
@<TRIPOS>BOND
     1    15    14    1
     2    19    18    1
     3    16    14    1
     4    17    14    1
     5    14     7    1
     6    20    18    1
     7    18    21    1
     8    18     8    1
     9    11    10    1
    10     7     8    2
    11     7     6    1
    12     8     9    1
    13    10     6    1
    14    10    12    1
    15    10    13    1
    16     6     5    1
    17     9     5    1
    18     9    22    1
    19    23    22    1
    20     5     1    1
    21    25    22    1
    22    22    24    1
    23     1     2    1
    24     1    26    1
    25     1    30    1
    26     2    34    1
    27    28    26    1
    28    27    26    1
    29    26    29    1
    30    33    30    1
    31    32    30    1
    32    30    31    1
    33     4    34   ar
    34     4    39   ar
    35    34     3   ar
    36    40    39    1
    37    39    37   ar
    38     3    35   ar
    39    37    35   ar
    40    37    38    1
    41    35    36    1
