@<TRIPOS>MOLECULE
2,5,6,7,8,9
 40 41 0 0 0
SMALL
GASTEIGER

@<TRIPOS>ATOM
      1 SI          4.1586    3.4088    4.5476 Si      1  UNL1        0.0000
      2 N           2.4065    3.3079    4.5531 N.pl3   1  UNL1        0.0000
      3 N           2.3255    3.4706    6.8449 N.ar    1  UNL1        0.0000
      4 N          -0.4260    3.0812    6.7867 N.ar    1  UNL1        0.0000
      5 C           4.1028    3.5573    2.6523 C.3     1  UNL1        0.0000
      6 C           3.4174    4.6679    2.0619 C.2     1  UNL1        0.0000
      7 C           2.8049    4.2354    0.8676 C.2     1  UNL1        0.0000
      8 C           3.1075    2.8484    0.6988 C.2     1  UNL1        0.0000
      9 C           3.9048    2.4411    1.7924 C.2     1  UNL1        0.0000
     10 C           3.5473    6.0928    2.5217 C.3     1  UNL1        0.0000
     11 H           2.8109    6.7366    2.0432 H       1  UNL1        0.0000
     12 H           4.5385    6.4721    2.2589 H       1  UNL1        0.0000
     13 H           3.4373    6.1807    3.6013 H       1  UNL1        0.0000
     14 C           2.1324    5.0821   -0.1775 C.3     1  UNL1        0.0000
     15 H           1.8318    6.0477    0.2258 H       1  UNL1        0.0000
     16 H           1.2448    4.5861   -0.5752 H       1  UNL1        0.0000
     17 H           2.8153    5.2644   -1.0118 H       1  UNL1        0.0000
     18 C           2.8918    2.0804   -0.5765 C.3     1  UNL1        0.0000
     19 H           3.6846    2.3246   -1.2902 H       1  UNL1        0.0000
     20 H           1.9413    2.3371   -1.0459 H       1  UNL1        0.0000
     21 H           2.9168    1.0060   -0.4034 H       1  UNL1        0.0000
     22 C           4.5710    1.0994    1.9183 C.3     1  UNL1        0.0000
     23 H           3.8753    0.3252    2.2493 H       1  UNL1        0.0000
     24 H           5.3895    1.1559    2.6314 H       1  UNL1        0.0000
     25 H           4.9811    0.7928    0.9543 H       1  UNL1        0.0000
     26 C           4.9324    4.8968    5.4731 C.3     1  UNL1        0.0000
     27 H           4.1715    5.5874    5.8206 H       1  UNL1        0.0000
     28 H           5.6335    5.4441    4.8522 H       1  UNL1        0.0000
     29 H           5.4673    4.5448    6.3473 H       1  UNL1        0.0000
     30 C           4.9313    1.8161    5.2777 C.3     1  UNL1        0.0000
     31 H           4.7863    1.8190    6.3530 H       1  UNL1        0.0000
     32 H           5.9983    1.7663    5.0889 H       1  UNL1        0.0000
     33 H           4.4706    0.9155    4.8840 H       1  UNL1        0.0000
     34 C           1.6838    3.2879    5.6751 C.ar    1  UNL1        0.0000
     35 C           1.5964    3.4725    7.9501 C.ar    1  UNL1        0.0000
     36 H           2.1422    3.6223    8.8737 H       1  UNL1        0.0000
     37 C           0.2263    3.2917    7.9341 C.ar    1  UNL1        0.0000
     38 H          -0.3730    3.2994    8.8326 H       1  UNL1        0.0000
     39 C           0.2772    3.0737    5.6811 C.ar    1  UNL1        0.0000
     40 H          -0.2478    2.8816    4.7463 H       1  UNL1        0.0000
@<TRIPOS>BOND
     1    19    18    1
     2    20    18    1
     3    17    14    1
     4    18    21    1
     5    18     8    1
     6    16    14    1
     7    14    15    1
     8    14     7    1
     9     8     7    1
    10     8     9    2
    11     7     6    2
    12    25    22    1
    13     9    22    1
    14     9     5    1
    15    22    23    1
    16    22    24    1
    17    11    10    1
    18     6    10    1
    19     6     5    1
    20    12    10    1
    21    10    13    1
    22     5     1    1
    23     1     2    1
    24     1    30    1
    25     1    26    1
    26     2    34    1
    27    40    39    1
    28    28    26    1
    29    33    30    1
    30    32    30    1
    31    30    31    1
    32    26    27    1
    33    26    29    1
    34    34    39   ar
    35    34     3   ar
    36    39     4   ar
    37     4    37   ar
    38     3    35   ar
    39    37    35   ar
    40    37    38    1
    41    35    36    1
