@<TRIPOS>MOLECULE
2,4,5,6,7,8
 41 42 0 0 0
SMALL
GASTEIGER

@<TRIPOS>ATOM
      1 SI          8.1784    1.6062    9.3713 Si      1  UNL1        0.0000
      2 N           7.7376    3.2808    9.6403 N.pl3   1  UNL1        0.0000
      3 N           9.9392    3.8495    9.8853 N.ar    1  UNL1        0.0000
      4 C           6.3317    1.1509    9.4553 C.3     1  UNL1        0.0000
      5 C           5.4290    1.3541    8.3747 C.2     1  UNL1        0.0000
      6 C           4.1762    1.7469    8.8983 C.2     1  UNL1        0.0000
      7 C           4.2886    1.7892   10.3219 C.2     1  UNL1        0.0000
      8 C           5.6079    1.4228   10.6609 C.2     1  UNL1        0.0000
      9 C           5.6912    1.0286    6.9307 C.3     1  UNL1        0.0000
     10 H           5.7752    1.9272    6.3159 H       1  UNL1        0.0000
     11 H           4.8762    0.4226    6.5295 H       1  UNL1        0.0000
     12 H           6.6125    0.4594    6.8387 H       1  UNL1        0.0000
     13 C           2.8749    1.7875    8.1448 C.3     1  UNL1        0.0000
     14 H           2.3848    0.8109    8.2052 H       1  UNL1        0.0000
     15 H           3.0320    2.0182    7.0927 H       1  UNL1        0.0000
     16 H           2.1871    2.5226    8.5649 H       1  UNL1        0.0000
     17 C           3.1234    1.9811   11.2532 C.3     1  UNL1        0.0000
     18 H           2.5146    1.0733   11.2877 H       1  UNL1        0.0000
     19 H           2.4826    2.7995   10.9194 H       1  UNL1        0.0000
     20 H           3.4555    2.1993   12.2670 H       1  UNL1        0.0000
     21 C           6.1139    1.1268   12.0448 C.3     1  UNL1        0.0000
     22 H           5.4724    1.5654   12.8077 H       1  UNL1        0.0000
     23 H           7.1287    1.4938   12.1898 H       1  UNL1        0.0000
     24 H           6.1270    0.0454   12.2057 H       1  UNL1        0.0000
     25 C           9.0525    1.3882    7.6812 C.3     1  UNL1        0.0000
     26 H           8.5445    1.9196    6.8827 H       1  UNL1        0.0000
     27 H           9.1323    0.3428    7.4024 H       1  UNL1        0.0000
     28 H          10.0581    1.7878    7.7569 H       1  UNL1        0.0000
     29 C           9.2831    0.7702   10.6948 C.3     1  UNL1        0.0000
     30 H          10.2510    0.5370   10.2673 H       1  UNL1        0.0000
     31 H           8.8509   -0.1535   11.0644 H       1  UNL1        0.0000
     32 H           9.4567    1.4293   11.5384 H       1  UNL1        0.0000
     33 C           8.6579    4.2443    9.8041 C.ar    1  UNL1        0.0000
     34 C           8.3074    5.6146    9.8803 C.ar    1  UNL1        0.0000
     35 H           7.2612    5.8890    9.7786 H       1  UNL1        0.0000
     36 C           9.3037    6.5426   10.0634 C.ar    1  UNL1        0.0000
     37 H           9.0669    7.5968   10.1255 H       1  UNL1        0.0000
     38 C          10.6286    6.1180   10.1627 C.ar    1  UNL1        0.0000
     39 H          11.4328    6.8219   10.3069 H       1  UNL1        0.0000
     40 C          10.8776    4.7626   10.0596 C.ar    1  UNL1        0.0000
     41 H          11.8886    4.3756   10.1184 H       1  UNL1        0.0000
@<TRIPOS>BOND
     1    10     9    1
     2    11     9    1
     3    12     9    1
     4    26    25    1
     5     9     5    1
     6    15    13    1
     7    27    25    1
     8    25    28    1
     9    25     1    1
    10    13    14    1
    11    13    16    1
    12    13     6    1
    13     5     6    2
    14     5     4    1
    15     6     7    1
    16     1     4    1
    17     1     2    1
    18     1    29    1
    19     4     8    1
    20     2    33    1
    21    35    34    1
    22    33    34   ar
    23    33     3   ar
    24    34    36   ar
    25     3    40   ar
    26    40    41    1
    27    40    38   ar
    28    36    37    1
    29    36    38   ar
    30    38    39    1
    31    30    29    1
    32     7     8    2
    33     7    17    1
    34     8    21    1
    35    29    31    1
    36    29    32    1
    37    19    17    1
    38    17    18    1
    39    17    20    1
    40    21    23    1
    41    21    24    1
    42    21    22    1
