@<TRIPOS>MOLECULE
2,3,4,9,14,19
 48 49 0 0 0
SMALL
GASTEIGER

@<TRIPOS>ATOM
      1 SI          3.6205    8.3770    2.9740 Si      1  UNL1        0.0000
      2 N           5.3526    8.3010    2.9794 N.3     1  UNL1        0.0000
      3 C           3.7765   10.0229    3.9394 C.3     1  UNL1        0.0000
      4 C           4.3728   11.1593    3.3078 C.3     1  UNL1        0.0000
      5 C           4.1480   11.6166    1.8954 C.3     1  UNL1        0.0000
      6 H           4.9673   11.2962    1.2448 H       1  UNL1        0.0000
      7 H           4.0924   12.7051    1.8573 H       1  UNL1        0.0000
      8 H           3.2167   11.2097    1.5107 H       1  UNL1        0.0000
      9 C           5.1588   11.8595    4.2594 C.2     1  UNL1        0.0000
     10 C           5.8483   13.1693    4.0119 C.3     1  UNL1        0.0000
     11 H           5.1197   13.9840    4.0104 H       1  UNL1        0.0000
     12 H           6.3548   13.1615    3.0456 H       1  UNL1        0.0000
     13 H           6.5870   13.3783    4.7844 H       1  UNL1        0.0000
     14 C           5.0776   11.1534    5.4932 C.2     1  UNL1        0.0000
     15 C           5.6691   11.5666    6.8095 C.3     1  UNL1        0.0000
     16 H           6.5213   12.2303    6.6678 H       1  UNL1        0.0000
     17 H           6.0047   10.6936    7.3705 H       1  UNL1        0.0000
     18 H           4.9236   12.0952    7.4092 H       1  UNL1        0.0000
     19 C           4.2396   10.0253    5.2928 C.3     1  UNL1        0.0000
     20 C           3.8346    9.0695    6.3780 C.3     1  UNL1        0.0000
     21 H           3.6828    9.6078    7.3139 H       1  UNL1        0.0000
     22 H           4.6070    8.3130    6.5440 H       1  UNL1        0.0000
     23 H           2.9061    8.5708    6.1131 H       1  UNL1        0.0000
     24 C           2.6941    6.9749    3.8977 C.3     1  UNL1        0.0000
     25 H           2.5379    6.1319    3.2321 H       1  UNL1        0.0000
     26 H           1.7147    7.3053    4.2274 H       1  UNL1        0.0000
     27 H           3.2414    6.6164    4.7628 H       1  UNL1        0.0000
     28 C           2.7815    8.5181    1.2560 C.3     1  UNL1        0.0000
     29 H           3.4209    8.9990    0.5240 H       1  UNL1        0.0000
     30 H           1.8547    9.0786    1.3184 H       1  UNL1        0.0000
     31 H           2.5325    7.5321    0.8778 H       1  UNL1        0.0000
     32 C           6.2541    7.2816    2.5031 C.3     1  UNL1        0.0000
     33 H           7.2874    7.6736    2.5793 H       1  UNL1        0.0000
     34 C           6.9258    4.6319    1.4137 C.3     1  UNL1        0.0000
     35 H           7.6657    3.9057    1.0715 H       1  UNL1        0.0000
     36 H           5.9378    4.1768    1.3116 H       1  UNL1        0.0000
     37 C           6.1662    6.0127    3.3622 C.3     1  UNL1        0.0000
     38 C           7.1742    4.9744    2.8805 C.3     1  UNL1        0.0000
     39 H           8.1849    5.3726    2.9957 H       1  UNL1        0.0000
     40 H           7.0982    4.0727    3.4918 H       1  UNL1        0.0000
     41 C           5.9901    6.9276    1.0358 C.3     1  UNL1        0.0000
     42 C           6.9946    5.8880    0.5494 C.3     1  UNL1        0.0000
     43 H           6.7896    5.6350   -0.4930 H       1  UNL1        0.0000
     44 H           8.0013    6.3087    0.6001 H       1  UNL1        0.0000
     45 H           6.0580    7.8388    0.4360 H       1  UNL1        0.0000
     46 H           6.3557    6.2805    4.4066 H       1  UNL1        0.0000
     47 H           4.9743    6.5354    0.9522 H       1  UNL1        0.0000
     48 H           5.1530    5.6125    3.2851 H       1  UNL1        0.0000
@<TRIPOS>BOND
     1    43    42    1
     2    45    41    1
     3    29    28    1
     4    42    44    1
     5    42    41    1
     6    42    34    1
     7    31    28    1
     8    47    41    1
     9    41    32    1
    10    35    34    1
    11     6     5    1
    12    28    30    1
    13    28     1    1
    14    36    34    1
    15    34    38    1
    16     8     5    1
    17     7     5    1
    18     5     4    1
    19    32    33    1
    20    32     2    1
    21    32    37    1
    22    38    39    1
    23    38    37    1
    24    38    40    1
    25     1     2    1
    26     1    24    1
    27     1     3    1
    28    12    10    1
    29    25    24    1
    30    48    37    1
    31     4     3    1
    32     4     9    1
    33    37    46    1
    34    24    26    1
    35    24    27    1
    36     3    19    1
    37    11    10    1
    38    10     9    1
    39    10    13    1
    40     9    14    2
    41    19    14    1
    42    19    20    1
    43    14    15    1
    44    23    20    1
    45    20    22    1
    46    20    21    1
    47    16    15    1
    48    15    17    1
    49    15    18    1
