@<TRIPOS>MOLECULE
2,4,5,6,7
 44 44 0 0 0
SMALL
GASTEIGER

@<TRIPOS>ATOM
      1 SI          8.5581    2.5089    2.6988 Si      1  UNL1        0.0000
      2 N           6.8493    2.4125    2.4716 N.3     1  UNL1        0.0000
      3 C           8.3472    3.3085    4.4257 C.3     1  UNL1        0.0000
      4 C           7.8372    2.5619    5.5380 C.2     1  UNL1        0.0000
      5 C           7.0681    3.4263    6.3600 C.2     1  UNL1        0.0000
      6 C           7.0742    4.7191    5.7581 C.2     1  UNL1        0.0000
      7 C           7.8510    4.6428    4.5727 C.2     1  UNL1        0.0000
      8 C           8.0796    1.0991    5.7980 C.3     1  UNL1        0.0000
      9 H           9.0953    0.8298    5.5155 H       1  UNL1        0.0000
     10 H           7.3866    0.4662    5.2271 H       1  UNL1        0.0000
     11 H           7.9532    0.8677    6.8553 H       1  UNL1        0.0000
     12 C           6.4261    3.1029    7.6819 C.3     1  UNL1        0.0000
     13 H           6.3003    2.0285    7.8124 H       1  UNL1        0.0000
     14 H           5.4411    3.5695    7.7644 H       1  UNL1        0.0000
     15 H           7.0386    3.4774    8.5055 H       1  UNL1        0.0000
     16 C           6.4259    5.9401    6.3516 C.3     1  UNL1        0.0000
     17 H           6.3436    6.7417    5.6188 H       1  UNL1        0.0000
     18 H           7.0081    6.3092    7.1992 H       1  UNL1        0.0000
     19 H           5.4200    5.7130    6.7151 H       1  UNL1        0.0000
     20 C           8.1162    5.7850    3.6295 C.3     1  UNL1        0.0000
     21 H           9.1271    5.7185    3.2330 H       1  UNL1        0.0000
     22 H           8.0181    6.7412    4.1426 H       1  UNL1        0.0000
     23 H           7.4176    5.7814    2.7831 H       1  UNL1        0.0000
     24 C           9.5640    0.8749    2.7336 C.3     1  UNL1        0.0000
     25 H           9.0462    0.0598    3.2270 H       1  UNL1        0.0000
     26 H          10.5170    1.0156    3.2325 H       1  UNL1        0.0000
     27 H           9.7792    0.5578    1.7182 H       1  UNL1        0.0000
     28 C           9.4812    3.6087    1.4281 C.3     1  UNL1        0.0000
     29 H           9.7581    3.0191    0.5606 H       1  UNL1        0.0000
     30 H          10.3969    4.0107    1.8479 H       1  UNL1        0.0000
     31 H           8.8780    4.4393    1.0775 H       1  UNL1        0.0000
     32 C           6.0918    1.6364    1.5066 C.3     1  UNL1        0.0000
     33 C           4.6772    2.2473    1.3871 C.3     1  UNL1        0.0000
     34 H           4.1216    2.1570    2.3313 H       1  UNL1        0.0000
     35 H           4.1097    1.7247    0.6187 H       1  UNL1        0.0000
     36 H           4.7499    3.3002    1.0991 H       1  UNL1        0.0000
     37 C           6.7544    1.6611    0.1223 C.3     1  UNL1        0.0000
     38 H           7.7347    1.1959    0.1714 H       1  UNL1        0.0000
     39 H           6.8758    2.6896   -0.2092 H       1  UNL1        0.0000
     40 H           6.1463    1.1239   -0.6012 H       1  UNL1        0.0000
     41 C           5.9692    0.1771    1.9908 C.3     1  UNL1        0.0000
     42 H           6.9511   -0.2902    1.9996 H       1  UNL1        0.0000
     43 H           5.3185   -0.3916    1.3307 H       1  UNL1        0.0000
     44 H           5.5556    0.1438    3.0024 H       1  UNL1        0.0000
@<TRIPOS>BOND
     1    40    37    1
     2    39    37    1
     3    37    38    1
     4    37    32    1
     5    29    28    1
     6    35    33    1
     7    31    28    1
     8    36    33    1
     9    43    41    1
    10    33    32    1
    11    33    34    1
    12    28    30    1
    13    28     1    1
    14    32    41    1
    15    32     2    1
    16    27    24    1
    17    41    42    1
    18    41    44    1
    19     2     1    1
    20     1    24    1
    21     1     3    1
    22    24    25    1
    23    24    26    1
    24    23    20    1
    25    21    20    1
    26    20    22    1
    27    20     7    1
    28     3     7    1
    29     3     4    1
    30     7     6    2
    31    10     8    1
    32     9     8    1
    33     4     8    1
    34     4     5    2
    35    17    16    1
    36     6    16    1
    37     6     5    1
    38     8    11    1
    39    16    19    1
    40    16    18    1
    41     5    12    1
    42    12    14    1
    43    12    13    1
    44    12    15    1
