@<TRIPOS>MOLECULE
2,3,4,5,10,11
 38 39 0 0 0
SMALL
GASTEIGER

@<TRIPOS>ATOM
      1 SI         -1.2984    4.0476   10.7475 Si      1  UNL1        0.0000
      2 N          -0.7475    5.5100   11.5253 N.3     1  UNL1        0.0000
      3 C          -0.8888    4.8332    9.0618 C.3     1  UNL1        0.0000
      4 C           0.4602    5.1511    8.7371 C.3     1  UNL1        0.0000
      5 C           0.4653    6.2976    7.8853 C.ar    1  UNL1        0.0000
      6 C           1.4928    6.9888    7.2197 C.ar    1  UNL1        0.0000
      7 C           1.1695    8.1028    6.4848 C.ar    1  UNL1        0.0000
      8 C          -0.1585    8.5514    6.3787 C.ar    1  UNL1        0.0000
      9 C          -1.1894    7.8915    7.0016 C.ar    1  UNL1        0.0000
     10 C          -0.8953    6.7526    7.7704 C.ar    1  UNL1        0.0000
     11 C          -1.7077    5.8657    8.5406 C.3     1  UNL1        0.0000
     12 C          -3.1730    3.7149   10.9331 C.3     1  UNL1        0.0000
     13 C          -0.2919    2.4466   11.0406 C.3     1  UNL1        0.0000
     14 C          -0.4568    5.6920   12.9357 C.3     1  UNL1        0.0000
     15 C          -1.4220    4.8755   13.8046 C.3     1  UNL1        0.0000
     16 C           0.9908    5.2432   13.2008 C.3     1  UNL1        0.0000
     17 C          -0.6091    7.1775   13.3061 C.3     1  UNL1        0.0000
     18 H           1.3183    4.5157    8.9335 H       1  UNL1        0.0000
     19 H           2.5159    6.6425    7.2902 H       1  UNL1        0.0000
     20 H           1.9462    8.6496    5.9706 H       1  UNL1        0.0000
     21 H          -0.3647    9.4310    5.7869 H       1  UNL1        0.0000
     22 H          -2.2116    8.2331    6.9052 H       1  UNL1        0.0000
     23 H          -2.7916    5.8847    8.5772 H       1  UNL1        0.0000
     24 H          -3.5424    3.1137   10.1088 H       1  UNL1        0.0000
     25 H          -3.3921    3.1788   11.8501 H       1  UNL1        0.0000
     26 H          -3.7344    4.6456   10.9485 H       1  UNL1        0.0000
     27 H          -0.5771    1.6833   10.3244 H       1  UNL1        0.0000
     28 H          -0.4716    2.0428   12.0313 H       1  UNL1        0.0000
     29 H           0.7760    2.6156   10.9385 H       1  UNL1        0.0000
     30 H          -1.3042    3.8133   13.6100 H       1  UNL1        0.0000
     31 H          -1.2244    5.0601   14.8574 H       1  UNL1        0.0000
     32 H          -2.4468    5.1618   13.5824 H       1  UNL1        0.0000
     33 H           1.0859    4.1737   13.0274 H       1  UNL1        0.0000
     34 H           1.6639    5.7722   12.5230 H       1  UNL1        0.0000
     35 H           1.2761    5.4609   14.2269 H       1  UNL1        0.0000
     36 H          -0.4313    7.3158   14.3708 H       1  UNL1        0.0000
     37 H           0.1099    7.7883   12.7514 H       1  UNL1        0.0000
     38 H          -1.6208    7.5152   13.0724 H       1  UNL1        0.0000
@<TRIPOS>BOND
     1    21     8    1
     2    20     7    1
     3     8     7   ar
     4     8     9   ar
     5     7     6   ar
     6    22     9    1
     7     9    10   ar
     8     6    19    1
     9     6     5   ar
    10    10     5   ar
    11    10    11    1
    12     5     4    1
    13    11    23    1
    14    11     3    1
    15     4    18    1
    16     4     3    1
    17     3     1    1
    18    24    12    1
    19    27    13    1
    20     1    12    1
    21     1    13    1
    22     1     2    1
    23    12    26    1
    24    12    25    1
    25    29    13    1
    26    13    28    1
    27     2    14    1
    28    34    16    1
    29    37    17    1
    30    14    16    1
    31    14    17    1
    32    14    15    1
    33    33    16    1
    34    38    17    1
    35    16    35    1
    36    17    36    1
    37    32    15    1
    38    30    15    1
    39    15    31    1
