@<TRIPOS>MOLECULE
2,3,4,5,6,7
 36 37 0 0 0
SMALL
GASTEIGER

@<TRIPOS>ATOM
      1 SI          9.0094    3.6145    5.8299 Si      1  UNL1        0.0000
      2 N           9.3455    1.9175    6.0256 N.pl3   1  UNL1        0.0000
      3 C           7.4150    3.3066    6.8280 C.3     1  UNL1        0.0000
      4 C           6.3604    2.5204    6.2873 C.3     1  UNL1        0.0000
      5 C           5.7589    1.7825    7.3289 C.2     1  UNL1        0.0000
      6 C           6.4531    2.0741    8.5223 C.2     1  UNL1        0.0000
      7 C           7.4793    2.9920    8.2128 C.3     1  UNL1        0.0000
      8 C           8.7126    4.1951    4.0341 C.3     1  UNL1        0.0000
      9 C          10.2292    4.8123    6.6826 C.3     1  UNL1        0.0000
     10 C          10.3846    1.1029    5.5665 C.ar    1  UNL1        0.0000
     11 C          11.5461    0.9343    6.3419 C.ar    1  UNL1        0.0000
     12 C          12.5443    0.0835    5.8908 C.ar    1  UNL1        0.0000
     13 C          12.4186   -0.5897    4.6892 C.ar    1  UNL1        0.0000
     14 C          11.2891   -0.4006    3.9143 C.ar    1  UNL1        0.0000
     15 C          10.2681    0.4412    4.3307 C.ar    1  UNL1        0.0000
     16 C          11.7305    1.6883    7.6274 C.3     1  UNL1        0.0000
     17 C           9.0742    0.6569    3.4447 C.3     1  UNL1        0.0000
     18 H           5.9967    2.5726    5.2668 H       1  UNL1        0.0000
     19 H           4.8618    1.1801    7.2457 H       1  UNL1        0.0000
     20 H           6.1823    1.7339    9.5150 H       1  UNL1        0.0000
     21 H           8.1323    3.4682    8.9360 H       1  UNL1        0.0000
     22 H          13.4310   -0.0508    6.4936 H       1  UNL1        0.0000
     23 H          13.2004   -1.2556    4.3559 H       1  UNL1        0.0000
     24 H          11.1919   -0.9138    2.9684 H       1  UNL1        0.0000
     25 H           8.4438    5.2457    4.0139 H       1  UNL1        0.0000
     26 H           9.6155    4.0766    3.4439 H       1  UNL1        0.0000
     27 H           7.9199    3.6390    3.5441 H       1  UNL1        0.0000
     28 H          11.1963    4.7851    6.1913 H       1  UNL1        0.0000
     29 H          10.3806    4.5716    7.7301 H       1  UNL1        0.0000
     30 H           9.8622    5.8315    6.6247 H       1  UNL1        0.0000
     31 H          10.7666    1.9810    8.0504 H       1  UNL1        0.0000
     32 H          12.2628    1.0741    8.3505 H       1  UNL1        0.0000
     33 H          12.3196    2.5883    7.4467 H       1  UNL1        0.0000
     34 H           9.3314    1.3462    2.6392 H       1  UNL1        0.0000
     35 H           8.7644   -0.2857    2.9973 H       1  UNL1        0.0000
     36 H           8.2363    1.0725    4.0100 H       1  UNL1        0.0000
@<TRIPOS>BOND
     1    34    17    1
     2    24    14    1
     3    35    17    1
     4    26     8    1
     5    17    36    1
     6    17    15    1
     7    27     8    1
     8    14    15   ar
     9    14    13   ar
    10    25     8    1
    11     8     1    1
    12    15    10   ar
    13    23    13    1
    14    13    12   ar
    15    18     4    1
    16    10     2    1
    17    10    11   ar
    18     1     2    1
    19     1     9    1
    20     1     3    1
    21    12    11   ar
    22    12    22    1
    23    28     9    1
    24     4     3    1
    25     4     5    1
    26    11    16    1
    27    30     9    1
    28     9    29    1
    29     3     7    1
    30    19     5    1
    31     5     6    2
    32    33    16    1
    33    16    31    1
    34    16    32    1
    35     7     6    1
    36     7    21    1
    37     6    20    1
