@<TRIPOS>MOLECULE
2,3,4,6,8,10
 46 50 0 0 0
SMALL
GASTEIGER

@<TRIPOS>ATOM
      1 CL          7.8005   13.1711    7.4040 Cl      1  UNL1       -0.0835
      2 N           5.1179    8.3360    3.9043 N.2     1  UNL1       -0.1525
      3 C           3.9289    6.3088    4.8515 C.2     1  UNL1       -0.0493
      4 C           4.9807    5.3939    4.6376 C.2     1  UNL1       -0.0613
      5 H           5.8289    5.2347    5.2885 H       1  UNL1        0.0618
      6 C           4.6704    4.6092    3.5083 C.2     1  UNL1       -0.0651
      7 H           5.2056    3.7260    3.1941 H       1  UNL1        0.0615
      8 C           3.4382    5.0495    3.0035 C.2     1  UNL1       -0.0760
      9 H           2.8547    4.5447    2.2446 H       1  UNL1        0.0578
     10 C           2.9940    6.1214    3.8091 C.3     1  UNL1        0.0096
     11 H           2.0294    6.6015    3.7212 H       1  UNL1        0.0397
     12 C           3.9615    7.4416    5.8601 C.3     1  UNL1        0.0426
     13 C           2.5403    7.9847    6.1328 C.3     1  UNL1       -0.0254
     14 H           2.1320    8.3973    5.2023 H       1  UNL1        0.0313
     15 C           2.5355    9.0788    7.2020 C.3     1  UNL1       -0.0462
     16 H           1.5102    9.4328    7.3403 H       1  UNL1        0.0271
     17 H           3.1415    9.9286    6.8912 H       1  UNL1        0.0271
     18 C           3.0736    8.5291    8.5208 C.3     1  UNL1       -0.0402
     19 H           3.0751    9.3260    9.2732 H       1  UNL1        0.0301
     20 C           4.4996    8.0350    8.3002 C.3     1  UNL1       -0.0462
     21 H           4.8882    7.6051    9.2273 H       1  UNL1        0.0271
     22 H           5.1401    8.8740    8.0342 H       1  UNL1        0.0271
     23 C           4.5185    6.9546    7.2168 C.3     1  UNL1       -0.0254
     24 H           5.5479    6.6056    7.0818 H       1  UNL1        0.0313
     25 C           1.6509    6.8386    6.6305 C.3     1  UNL1       -0.0462
     26 H           0.6379    7.2141    6.7981 H       1  UNL1        0.0271
     27 H           1.5956    6.0393    5.8917 H       1  UNL1        0.0271
     28 C           2.2029    7.3710    9.0001 C.3     1  UNL1       -0.0473
     29 H           1.1799    7.7143    9.1718 H       1  UNL1        0.0271
     30 H           2.5877    6.9809    9.9452 H       1  UNL1        0.0271
     31 C           3.6461    5.7909    7.7039 C.3     1  UNL1       -0.0462
     32 H           3.6466    4.9854    6.9672 H       1  UNL1        0.0271
     33 H           4.0552    5.3955    8.6369 H       1  UNL1        0.0271
     34 C           2.2154    6.2782    7.9345 C.3     1  UNL1       -0.0402
     35 H           1.5957    5.4366    8.2651 H       1  UNL1        0.0301
     36 C           4.8647    8.4695    5.1201 C.2     1  UNL1        0.0813
     37 C           5.5303    9.6328    5.7793 C.ar    1  UNL1       -0.0010
     38 C           5.0199   10.9205    5.6518 C.ar    1  UNL1       -0.0514
     39 H           4.0763   11.0766    5.1489 H       1  UNL1        0.0624
     40 C           5.7099   12.0098    6.1534 C.ar    1  UNL1       -0.0428
     41 H           5.3034   13.0050    6.0631 H       1  UNL1        0.0632
     42 C           6.9355   11.8140    6.7677 C.ar    1  UNL1        0.0410
     43 C           7.4840   10.5450    6.8647 C.ar    1  UNL1       -0.0428
     44 H           8.4504   10.4076    7.3240 H       1  UNL1        0.0632
     45 C           6.7835    9.4637    6.3640 C.ar    1  UNL1       -0.0514
     46 H           7.2122    8.4743    6.4254 H       1  UNL1        0.0624
@<TRIPOS>BOND
     1     9     8    1
     2     8     6    2
     3     8    10    1
     4     7     6    1
     5     6     4    1
     6    11    10    1
     7    10     3    1
     8     2    36    2
     9     4     3    2
    10     4     5    1
    11     3    12    1
    12    36    37    1
    13    36    12    1
    14    39    38    1
    15    14    13    1
    16    38    37   ar
    17    38    40   ar
    18    37    45   ar
    19    12    13    1
    20    12    23    1
    21    27    25    1
    22    41    40    1
    23    13    25    1
    24    13    15    1
    25    40    42   ar
    26    45    46    1
    27    45    43   ar
    28    25    26    1
    29    25    34    1
    30    42    43   ar
    31    42     1    1
    32    43    44    1
    33    17    15    1
    34    32    31    1
    35    24    23    1
    36    15    16    1
    37    15    18    1
    38    23    31    1
    39    23    20    1
    40    31    34    1
    41    31    33    1
    42    34    35    1
    43    34    28    1
    44    22    20    1
    45    20    18    1
    46    20    21    1
    47    18    28    1
    48    18    19    1
    49    28    29    1
    50    28    30    1
