@<TRIPOS>MOLECULE
2,3,4,6,8,10
 68 74 0 0 0
SMALL
GASTEIGER

@<TRIPOS>ATOM
      1 P           0.9793    5.3333    6.9892 P.3     1  UNL1       -0.0125
      2 N           1.9462    3.3433    4.4703 N.2     1  UNL1       -0.1528
      3 C          -0.0966    1.9083    4.9105 C.3     1  UNL1        0.0142
      4 C          -0.1345    1.1737    3.7042 C.3     1  UNL1       -0.0192
      5 H           0.3874    0.2489    3.5041 H       1  UNL1        0.0319
      6 C          -1.1207    1.7420    2.8687 C.3     1  UNL1       -0.0124
      7 H          -1.5063    1.3081    1.9553 H       1  UNL1        0.0352
      8 C          -1.6575    2.8571    3.5305 C.2     1  UNL1       -0.0834
      9 H          -2.5162    3.4299    3.2130 H       1  UNL1        0.0572
     10 C          -1.0206    2.9659    4.7842 C.2     1  UNL1       -0.0794
     11 H          -1.2733    3.6839    5.5514 H       1  UNL1        0.0575
     12 C           0.9138    1.7739    6.0348 C.3     1  UNL1        0.0310
     13 C           0.2542    2.0253    7.4076 C.3     1  UNL1       -0.0283
     14 H          -0.1332    3.0505    7.4427 H       1  UNL1        0.0310
     15 C           1.2210    1.8283    8.5746 C.3     1  UNL1       -0.0464
     16 H           2.0550    2.5254    8.5089 H       1  UNL1        0.0271
     17 H           0.6911    2.0343    9.5086 H       1  UNL1        0.0271
     18 C           1.7540    0.3994    8.5776 C.3     1  UNL1       -0.0402
     19 H           2.4646    0.2742    9.4031 H       1  UNL1        0.0301
     20 C           2.4667    0.1461    7.2518 C.3     1  UNL1       -0.0464
     21 H           2.8478   -0.8789    7.2256 H       1  UNL1        0.0271
     22 H           3.3183    0.8184    7.1686 H       1  UNL1        0.0271
     23 C           1.4972    0.3426    6.0850 C.3     1  UNL1       -0.0283
     24 H           2.0274    0.1400    5.1461 H       1  UNL1        0.0310
     25 C          -0.9080    1.0429    7.5796 C.3     1  UNL1       -0.0464
     26 H          -1.4201    1.2484    8.5229 H       1  UNL1        0.0271
     27 H          -1.6284    1.1688    6.7693 H       1  UNL1        0.0271
     28 C           0.5950   -0.5788    8.7449 C.3     1  UNL1       -0.0473
     29 H           0.0853   -0.3949    9.6936 H       1  UNL1        0.0271
     30 H           0.9683   -1.6059    8.7588 H       1  UNL1        0.0271
     31 C           0.3514   -0.6623    6.2649 C.3     1  UNL1       -0.0464
     32 H          -0.3627   -0.5933    5.4450 H       1  UNL1        0.0271
     33 H           0.7599   -1.6767    6.2720 H       1  UNL1        0.0271
     34 C          -0.3743   -0.3896    7.5812 C.3     1  UNL1       -0.0402
     35 H          -1.2119   -1.0894    7.6842 H       1  UNL1        0.0301
     36 C           1.9531    2.8580    5.6235 C.2     1  UNL1        0.0788
     37 C           2.9809    3.4469    6.5343 C.ar    1  UNL1        0.0068
     38 C           2.6753    4.6450    7.1875 C.ar    1  UNL1       -0.0057
     39 C           3.6654    5.3213    7.8913 C.ar    1  UNL1       -0.0529
     40 H           3.4290    6.2608    8.3728 H       1  UNL1        0.0624
     41 C           4.9501    4.8134    7.9557 C.ar    1  UNL1       -0.0611
     42 H           5.7121    5.3397    8.5116 H       1  UNL1        0.0618
     43 C           5.2638    3.6471    7.2769 C.ar    1  UNL1       -0.0611
     44 H           6.2749    3.2667    7.2938 H       1  UNL1        0.0618
     45 C           4.2908    2.9798    6.5541 C.ar    1  UNL1       -0.0522
     46 H           4.5568    2.1029    5.9800 H       1  UNL1        0.0624
     47 C           1.5095    7.0409    6.5650 C.ar    1  UNL1       -0.0147
     48 C           2.3434    7.1571    5.4536 C.ar    1  UNL1       -0.0535
     49 H           2.6865    6.2581    4.9567 H       1  UNL1        0.0624
     50 C           2.7252    8.4012    4.9934 C.ar    1  UNL1       -0.0611
     51 H           3.3742    8.4820    4.1332 H       1  UNL1        0.0618
     52 C           2.2729    9.5461    5.6311 C.ar    1  UNL1       -0.0617
     53 H           2.5673   10.5207    5.2700 H       1  UNL1        0.0618
     54 C           1.4406    9.4365    6.7310 C.ar    1  UNL1       -0.0611
     55 H           1.0864   10.3263    7.2319 H       1  UNL1        0.0618
     56 C           1.0543    8.1907    7.1959 C.ar    1  UNL1       -0.0535
     57 H           0.4050    8.1192    8.0571 H       1  UNL1        0.0624
     58 C           0.4417    5.5540    8.7322 C.ar    1  UNL1       -0.0147
     59 C          -0.8379    6.0855    8.8915 C.ar    1  UNL1       -0.0535
     60 H          -1.4056    6.3631    8.0121 H       1  UNL1        0.0624
     61 C          -1.3827    6.2558   10.1494 C.ar    1  UNL1       -0.0611
     62 H          -2.3704    6.6803   10.2579 H       1  UNL1        0.0618
     63 C          -0.6636    5.8709   11.2696 C.ar    1  UNL1       -0.0617
     64 H          -1.0861    5.9991   12.2554 H       1  UNL1        0.0618
     65 C           0.5926    5.3095   11.1190 C.ar    1  UNL1       -0.0611
     66 H           1.1503    4.9941   11.9894 H       1  UNL1        0.0618
     67 C           1.1433    5.1464    9.8595 C.ar    1  UNL1       -0.0535
     68 H           2.1219    4.7005    9.7624 H       1  UNL1        0.0624
@<TRIPOS>BOND
     1     7     6    1
     2     6     8    1
     3     6     4    1
     4     9     8    1
     5     5     4    1
     6     8    10    2
     7     4     3    1
     8    51    50    1
     9     2    36    2
    10    10     3    1
    11    10    11    1
    12     3    12    1
    13    49    48    1
    14    50    48   ar
    15    50    52   ar
    16    24    23    1
    17    53    52    1
    18    32    31    1
    19    48    47   ar
    20    36    12    1
    21    36    37    1
    22    52    54   ar
    23    46    45    1
    24    12    23    1
    25    12    13    1
    26    23    31    1
    27    23    20    1
    28    31    33    1
    29    31    34    1
    30    37    45   ar
    31    37    38   ar
    32    45    43   ar
    33    47     1    1
    34    47    56   ar
    35    54    56   ar
    36    54    55    1
    37    27    25    1
    38     1    38    1
    39     1    58    1
    40    22    20    1
    41    38    39   ar
    42    56    57    1
    43    21    20    1
    44    20    18    1
    45    43    44    1
    46    43    41   ar
    47    13    14    1
    48    13    25    1
    49    13    15    1
    50    25    34    1
    51    25    26    1
    52    34    35    1
    53    34    28    1
    54    39    41   ar
    55    39    40    1
    56    41    42    1
    57    60    59    1
    58    16    15    1
    59    15    18    1
    60    15    17    1
    61    18    28    1
    62    18    19    1
    63    58    59   ar
    64    58    67   ar
    65    28    30    1
    66    28    29    1
    67    59    61   ar
    68    68    67    1
    69    67    65   ar
    70    61    62    1
    71    61    63   ar
    72    65    63   ar
    73    65    66    1
    74    63    64    1
