@<TRIPOS>MOLECULE
2,3,4,6,8,10
 36 37 0 0 0
SMALL
GASTEIGER

@<TRIPOS>ATOM
      1 SI          1.2651    5.5134   12.1900 Si      1  UNL1        0.0000
      2 N           0.5015    5.6491   13.7646 N.pl3   1  UNL1        0.0000
      3 C          -0.4116    4.9586   11.5004 C.3     1  UNL1        0.0000
      4 C          -1.4406    5.8591   11.1666 C.3     1  UNL1        0.0000
      5 H          -1.2929    6.8066   10.6681 H       1  UNL1        0.0000
      6 C          -2.6855    5.2563   11.4351 C.2     1  UNL1        0.0000
      7 H          -3.6565    5.6527   11.1729 H       1  UNL1        0.0000
      8 C          -2.4458    3.9745   11.9549 C.2     1  UNL1        0.0000
      9 H          -3.1952    3.2220   12.1599 H       1  UNL1        0.0000
     10 C          -1.0492    3.7922   12.0264 C.3     1  UNL1        0.0000
     11 H          -0.5544    2.8500   12.2342 H       1  UNL1        0.0000
     12 C           1.1499    5.7226   15.0072 C.ar    1  UNL1        0.0000
     13 C           1.4955    6.9557   15.5861 C.ar    1  UNL1        0.0000
     14 C           2.0637    6.9845   16.8525 C.ar    1  UNL1        0.0000
     15 H           2.3084    7.9414   17.2895 H       1  UNL1        0.0000
     16 C           2.3145    5.8221   17.5542 C.ar    1  UNL1        0.0000
     17 H           2.7418    5.8619   18.5441 H       1  UNL1        0.0000
     18 C           2.0309    4.6047   16.9636 C.ar    1  UNL1        0.0000
     19 H           2.2545    3.6859   17.4864 H       1  UNL1        0.0000
     20 C           1.4670    4.5361   15.6987 C.ar    1  UNL1        0.0000
     21 C           1.2464    3.1841   15.0818 C.3     1  UNL1        0.0000
     22 H           0.5680    3.2471   14.2305 H       1  UNL1        0.0000
     23 H           0.8500    2.4864   15.8178 H       1  UNL1        0.0000
     24 H           2.1997    2.7850   14.7348 H       1  UNL1        0.0000
     25 C           1.2833    8.2578   14.8710 C.3     1  UNL1        0.0000
     26 H           0.5365    8.8570   15.3913 H       1  UNL1        0.0000
     27 H           0.9630    8.0927   13.8475 H       1  UNL1        0.0000
     28 H           2.2121    8.8265   14.8635 H       1  UNL1        0.0000
     29 C           1.8609    7.1612   11.4246 C.3     1  UNL1        0.0000
     30 H           1.0823    7.9182   11.3967 H       1  UNL1        0.0000
     31 H           2.1898    6.9955   10.4041 H       1  UNL1        0.0000
     32 H           2.7034    7.5664   11.9753 H       1  UNL1        0.0000
     33 C           2.6832    4.2392   12.0916 C.3     1  UNL1        0.0000
     34 H           2.3296    3.2153   12.1535 H       1  UNL1        0.0000
     35 H           3.3889    4.3998   12.9004 H       1  UNL1        0.0000
     36 H           3.2248    4.3446   11.1581 H       1  UNL1        0.0000
@<TRIPOS>BOND
     1    31    29    1
     2     5     4    1
     3    36    33    1
     4     4     6    1
     5     4     3    1
     6     7     6    1
     7    30    29    1
     8    29    32    1
     9    29     1    1
    10     6     8    2
    11     3    10    1
    12     3     1    1
    13     8    10    1
    14     8     9    1
    15    10    11    1
    16    33    34    1
    17    33     1    1
    18    33    35    1
    19     1     2    1
    20     2    12    1
    21    27    25    1
    22    22    21    1
    23    24    21    1
    24    28    25    1
    25    25    26    1
    26    25    13    1
    27    12    13   ar
    28    12    20   ar
    29    21    20    1
    30    21    23    1
    31    13    14   ar
    32    20    18   ar
    33    14    15    1
    34    14    16   ar
    35    18    19    1
    36    18    16   ar
    37    16    17    1
