@<TRIPOS>MOLECULE
2,3,4,5,6,7
 44 44 0 0 0
SMALL
GASTEIGER

@<TRIPOS>ATOM
      1 SI          3.0009    2.0485    1.9651 Si      1  UNL1        0.0000
      2 N           4.4793    1.2663    1.5216 N.3     1  UNL1        0.0000
      3 C           2.0319    1.1908   -0.6604 C.2     1  UNL1        0.0000
      4 C           1.9660   -0.0648   -1.3035 C.2     1  UNL1        0.0000
      5 C           1.8949   -1.0706   -0.2991 C.2     1  UNL1        0.0000
      6 C           1.9308   -0.4242    0.9604 C.2     1  UNL1        0.0000
      7 C           1.9989    0.9860    0.7539 C.3     1  UNL1        0.0000
      8 C           1.8912    2.5013   -1.3786 C.3     1  UNL1        0.0000
      9 H           0.9063    2.5541   -1.8517 H       1  UNL1        0.0000
     10 H           2.6379    2.6087   -2.1663 H       1  UNL1        0.0000
     11 H           1.9762    3.3331   -0.6857 H       1  UNL1        0.0000
     12 C           1.8015   -0.2748   -2.7809 C.3     1  UNL1        0.0000
     13 H           0.7438   -0.2221   -3.0546 H       1  UNL1        0.0000
     14 H           2.1782   -1.2503   -3.0861 H       1  UNL1        0.0000
     15 H           2.3350    0.4907   -3.3436 H       1  UNL1        0.0000
     16 C           1.5942   -2.5200   -0.5597 C.3     1  UNL1        0.0000
     17 H           0.5143   -2.6640   -0.6545 H       1  UNL1        0.0000
     18 H           1.9494   -3.1568    0.2491 H       1  UNL1        0.0000
     19 H           2.0561   -2.8569   -1.4875 H       1  UNL1        0.0000
     20 C           1.7528   -1.0899    2.2979 C.3     1  UNL1        0.0000
     21 H           0.9496   -0.6013    2.8505 H       1  UNL1        0.0000
     22 H           2.6614   -1.0314    2.9017 H       1  UNL1        0.0000
     23 H           1.4869   -2.1389    2.1765 H       1  UNL1        0.0000
     24 C           2.3768    1.9125    3.7814 C.3     1  UNL1        0.0000
     25 H           2.8498    2.6688    4.3997 H       1  UNL1        0.0000
     26 H           2.5802    0.9477    4.2317 H       1  UNL1        0.0000
     27 H           1.3059    2.0802    3.8346 H       1  UNL1        0.0000
     28 C           2.9605    3.9480    1.6442 C.3     1  UNL1        0.0000
     29 H           3.3774    4.4782    2.4943 H       1  UNL1        0.0000
     30 H           1.9441    4.3061    1.5146 H       1  UNL1        0.0000
     31 H           3.5354    4.2334    0.7687 H       1  UNL1        0.0000
     32 C           5.7430    1.3350    2.2310 C.3     1  UNL1        0.0000
     33 C           5.7755    0.2478    3.3227 C.3     1  UNL1        0.0000
     34 H           4.9514    0.4014    4.0150 H       1  UNL1        0.0000
     35 H           6.7101    0.2879    3.8784 H       1  UNL1        0.0000
     36 H           5.6745   -0.7346    2.8649 H       1  UNL1        0.0000
     37 C           5.9443    2.7040    2.8997 C.3     1  UNL1        0.0000
     38 H           5.8397    3.4961    2.1629 H       1  UNL1        0.0000
     39 H           6.9365    2.7626    3.3418 H       1  UNL1        0.0000
     40 H           5.2055    2.8555    3.6805 H       1  UNL1        0.0000
     41 C           6.9193    1.1071    1.2635 C.3     1  UNL1        0.0000
     42 H           7.0750    1.9946    0.6549 H       1  UNL1        0.0000
     43 H           6.7073    0.2598    0.6057 H       1  UNL1        0.0000
     44 H           7.8325    0.9089    1.8222 H       1  UNL1        0.0000
@<TRIPOS>BOND
     1    15    12    1
     2    14    12    1
     3    13    12    1
     4    12     4    1
     5    10     8    1
     6     9     8    1
     7    19    16    1
     8     8    11    1
     9     8     3    1
    10     4     3    2
    11     4     5    1
    12     3     7    1
    13    17    16    1
    14    16     5    1
    15    16    18    1
    16     5     6    2
    17    43    41    1
    18    42    41    1
    19     7     6    1
    20     7     1    1
    21    31    28    1
    22     6    20    1
    23    41    44    1
    24    41    32    1
    25    30    28    1
    26     2     1    1
    27     2    32    1
    28    28     1    1
    29    28    29    1
    30     1    24    1
    31    38    37    1
    32    23    20    1
    33    32    37    1
    34    32    33    1
    35    20    21    1
    36    20    22    1
    37    36    33    1
    38    37    39    1
    39    37    40    1
    40    33    35    1
    41    33    34    1
    42    24    27    1
    43    24    26    1
    44    24    25    1
