@<TRIPOS>MOLECULE
1,4,6,8,10
 32 32 0 0 0
SMALL
GASTEIGER

@<TRIPOS>ATOM
      1 N           7.3605    2.6600    5.4463 N.3     1  UNL1        0.0000
      2 SI          6.6479    2.7051    7.0185 Si      1  UNL1        0.0000
      3 C           6.2136    4.5517    6.9068 C.3     1  UNL1        0.0000
      4 C           5.0273    5.0813    6.3402 C.2     1  UNL1        0.0000
      5 H           4.0428    4.6366    6.4329 H       1  UNL1        0.0000
      6 C           5.3059    6.3546    5.8041 C.2     1  UNL1        0.0000
      7 H           4.5734    7.0675    5.4453 H       1  UNL1        0.0000
      8 C           6.6755    6.6221    6.0066 C.2     1  UNL1        0.0000
      9 H           7.1745    7.5633    5.8109 H       1  UNL1        0.0000
     10 C           7.2379    5.5145    6.6677 C.2     1  UNL1        0.0000
     11 H           8.2594    5.4472    7.0318 H       1  UNL1        0.0000
     12 C           7.6244    2.3894    8.6426 C.3     1  UNL1        0.0000
     13 H           8.0394    1.3877    8.6752 H       1  UNL1        0.0000
     14 H           6.9665    2.4935    9.4994 H       1  UNL1        0.0000
     15 H           8.4407    3.0927    8.7722 H       1  UNL1        0.0000
     16 C           5.0619    1.6252    7.1168 C.3     1  UNL1        0.0000
     17 H           4.5161    1.6340    6.1774 H       1  UNL1        0.0000
     18 H           4.3967    1.9805    7.8961 H       1  UNL1        0.0000
     19 H           5.3062    0.5932    7.3443 H       1  UNL1        0.0000
     20 C           8.5619    1.9132    5.1015 C.3     1  UNL1        0.0000
     21 C           9.7907    2.5797    5.7498 C.3     1  UNL1        0.0000
     22 H           9.8286    3.6312    5.4587 H       1  UNL1        0.0000
     23 H          10.7088    2.0925    5.4294 H       1  UNL1        0.0000
     24 H           9.7206    2.5166    6.8318 H       1  UNL1        0.0000
     25 C           8.4530    0.4542    5.5725 C.3     1  UNL1        0.0000
     26 H           7.5485    0.0066    5.1671 H       1  UNL1        0.0000
     27 H           8.4017    0.4088    6.6554 H       1  UNL1        0.0000
     28 H           9.3139   -0.1198    5.2386 H       1  UNL1        0.0000
     29 C           8.7741    1.9024    3.5755 C.3     1  UNL1        0.0000
     30 H           8.8676    2.9232    3.1974 H       1  UNL1        0.0000
     31 H           7.9496    1.3927    3.0796 H       1  UNL1        0.0000
     32 H           9.6929    1.3671    3.3415 H       1  UNL1        0.0000
@<TRIPOS>BOND
     1    31    29    1
     2    30    29    1
     3    32    29    1
     4    29    20    1
     5    20     1    1
     6    20    25    1
     7    20    21    1
     8    26    25    1
     9    28    25    1
    10    23    21    1
    11     7     6    1
    12     1     2    1
    13    22    21    1
    14    25    27    1
    15    21    24    1
    16     6     8    1
    17     6     4    2
    18     9     8    1
    19     8    10    2
    20    17    16    1
    21     4     5    1
    22     4     3    1
    23    10     3    1
    24    10    11    1
    25     3     2    1
    26     2    16    1
    27     2    12    1
    28    16    19    1
    29    16    18    1
    30    12    13    1
    31    12    15    1
    32    12    14    1
