@<TRIPOS>MOLECULE
2,19,20,21,22,23
 44 46 0 0 0
SMALL
GASTEIGER

@<TRIPOS>ATOM
      1 SI         -1.0576    1.2363   10.2758 Si      1  UNL1        0.0000
      2 N           0.0260    1.8731    9.0950 N.3     1  UNL1        0.0000
      3 C          -1.2365    4.6339   10.6771 C.2     1  UNL1        0.0000
      4 H          -0.7075    4.1372   11.4793 H       1  UNL1        0.0000
      5 C          -1.0972    5.9888   10.4806 C.2     1  UNL1        0.0000
      6 H          -0.4233    6.5524   11.1096 H       1  UNL1        0.0000
      7 C          -1.8188    6.6697    9.4881 C.2     1  UNL1        0.0000
      8 H          -1.6908    7.7360    9.3824 H       1  UNL1        0.0000
      9 C          -2.6721    5.9934    8.6457 C.2     1  UNL1        0.0000
     10 H          -3.2226    6.5212    7.8769 H       1  UNL1        0.0000
     11 C          -4.3059    3.7014    6.8669 C.ar    1  UNL1        0.0000
     12 H          -4.4885    4.6635    6.4034 H       1  UNL1        0.0000
     13 C          -4.8487    2.5515    6.3409 C.ar    1  UNL1        0.0000
     14 H          -5.4476    2.5992    5.4442 H       1  UNL1        0.0000
     15 C          -4.6428    1.3097    6.9614 C.ar    1  UNL1        0.0000
     16 H          -5.0973    0.4316    6.5268 H       1  UNL1        0.0000
     17 C          -3.8825    1.1858    8.0994 C.ar    1  UNL1        0.0000
     18 H          -3.7605    0.2231    8.5733 H       1  UNL1        0.0000
     19 C          -2.4158    2.4946    9.7954 C.3     1  UNL1        0.0000
     20 C          -2.1234    3.9025    9.8584 C.3     1  UNL1        0.0000
     21 C          -2.8139    4.6071    8.7937 C.3     1  UNL1        0.0000
     22 C          -3.5227    3.6124    8.0269 C.ar    1  UNL1        0.0000
     23 C          -3.2825    2.3305    8.6614 C.ar    1  UNL1        0.0000
     24 C          -1.5180   -0.5869    9.9084 C.3     1  UNL1        0.0000
     25 H          -0.7486   -1.2544   10.2824 H       1  UNL1        0.0000
     26 H          -2.4498   -0.8746   10.3824 H       1  UNL1        0.0000
     27 H          -1.6074   -0.7532    8.8379 H       1  UNL1        0.0000
     28 C          -0.5828    1.3427   12.1341 C.3     1  UNL1        0.0000
     29 H          -0.1803    0.3957   12.4771 H       1  UNL1        0.0000
     30 H           0.1671    2.1033   12.3255 H       1  UNL1        0.0000
     31 H          -1.4468    1.5701   12.7498 H       1  UNL1        0.0000
     32 C           1.4620    1.8491    8.9236 C.3     1  UNL1        0.0000
     33 C           1.7558    1.7987    7.4065 C.3     1  UNL1        0.0000
     34 H           1.2328    0.9449    6.9649 H       1  UNL1        0.0000
     35 H           1.4132    2.7235    6.9177 H       1  UNL1        0.0000
     36 H           2.8243    1.6877    7.2273 H       1  UNL1        0.0000
     37 C           2.0402    3.1541    9.5136 C.3     1  UNL1        0.0000
     38 H           1.9089    3.1571   10.5943 H       1  UNL1        0.0000
     39 H           3.1008    3.2451    9.2895 H       1  UNL1        0.0000
     40 H           1.5057    4.0157    9.0913 H       1  UNL1        0.0000
     41 C           2.0983    0.6323    9.6051 C.3     1  UNL1        0.0000
     42 H           1.6795   -0.2787    9.1860 H       1  UNL1        0.0000
     43 H           3.1750    0.6312    9.4559 H       1  UNL1        0.0000
     44 H           1.8889    0.6520   10.6705 H       1  UNL1        0.0000
@<TRIPOS>BOND
     1    14    13    1
     2    13    11   ar
     3    13    15   ar
     4    12    11    1
     5    16    15    1
     6    11    22   ar
     7    35    33    1
     8    15    17   ar
     9    34    33    1
    10    36    33    1
    11    33    32    1
    12    10     9    1
    13    22    23   ar
    14    22    21    1
    15    17    18    1
    16    17    23   ar
    17     9    21    1
    18     9     7    2
    19    23    19    1
    20    21    20    1
    21    27    24    1
    22    32     2    1
    23    32    37    1
    24    32    41    1
    25    40    37    1
    26     2     1    1
    27    42    41    1
    28    39    37    1
    29     8     7    1
    30    43    41    1
    31     7     5    1
    32    37    38    1
    33    41    44    1
    34    19    20    1
    35    19     1    1
    36    20     3    1
    37    24     1    1
    38    24    25    1
    39    24    26    1
    40     1    28    1
    41     5     3    2
    42     5     6    1
    43     3     4    1
    44    28    30    1
    45    28    29    1
    46    28    31    1
