@<TRIPOS>MOLECULE
1,4,5,6,7
 41 41 0 0 0
SMALL
GASTEIGER

@<TRIPOS>ATOM
      1 N          -3.1924   -1.7883   -5.0547 N.3     1  UNL1        0.0000
      2 SI         -1.8251   -1.7466   -3.9918 Si      1  UNL1        0.0000
      3 C          -3.0096   -1.7791   -2.5085 C.3     1  UNL1        0.0000
      4 C          -3.6818   -0.5640   -2.1684 C.2     1  UNL1        0.0000
      5 C          -4.9564   -0.5359   -1.6846 C.2     1  UNL1        0.0000
      6 C          -5.0452   -2.9768   -1.8623 C.3     1  UNL1        0.0000
      7 C          -3.7434   -2.9813   -2.2958 C.3     1  UNL1        0.0000
      8 C          -7.1700   -1.6864   -1.6030 C.3     1  UNL1        0.0000
      9 C          -5.5763   -1.8863    0.3282 C.3     1  UNL1        0.0000
     10 C          -0.6420   -3.2516   -3.9810 C.3     1  UNL1        0.0000
     11 C          -0.7976   -0.1329   -4.0342 C.3     1  UNL1        0.0000
     12 C          -3.1723   -2.0129   -6.4903 C.3     1  UNL1        0.0000
     13 C          -3.1786   -3.5297   -6.7514 C.3     1  UNL1        0.0000
     14 C          -1.9135   -1.3947   -7.1144 C.3     1  UNL1        0.0000
     15 C          -4.3974   -1.3718   -7.1621 C.3     1  UNL1        0.0000
     16 C          -5.6854   -1.7719   -1.2087 C.3     1  UNL1        0.0000
     17 H          -3.1684    0.3775   -2.3612 H       1  UNL1        0.0000
     18 H          -5.4224    0.4151   -1.4395 H       1  UNL1        0.0000
     19 H          -5.5681   -3.9220   -1.7242 H       1  UNL1        0.0000
     20 H          -3.2836   -3.9291   -2.5799 H       1  UNL1        0.0000
     21 H          -7.6400   -0.8282   -1.1254 H       1  UNL1        0.0000
     22 H          -7.2744   -1.5792   -2.6894 H       1  UNL1        0.0000
     23 H          -7.6986   -2.5858   -1.2902 H       1  UNL1        0.0000
     24 H          -6.0960   -2.7748    0.6808 H       1  UNL1        0.0000
     25 H          -4.5301   -1.9545    0.6204 H       1  UNL1        0.0000
     26 H          -6.0153   -1.0126    0.8051 H       1  UNL1        0.0000
     27 H          -1.1786   -4.1944   -4.0233 H       1  UNL1        0.0000
     28 H           0.0347   -3.2196   -4.8282 H       1  UNL1        0.0000
     29 H          -0.0348   -3.2546   -3.0819 H       1  UNL1        0.0000
     30 H          -0.3366    0.0592   -3.0710 H       1  UNL1        0.0000
     31 H          -0.0022   -0.1952   -4.7682 H       1  UNL1        0.0000
     32 H          -1.4152    0.7239   -4.2881 H       1  UNL1        0.0000
     33 H          -4.0361   -3.9848   -6.2536 H       1  UNL1        0.0000
     34 H          -3.2407   -3.7325   -7.8176 H       1  UNL1        0.0000
     35 H          -2.2679   -3.9763   -6.3593 H       1  UNL1        0.0000
     36 H          -1.0205   -1.8681   -6.7168 H       1  UNL1        0.0000
     37 H          -1.9267   -1.5281   -8.1932 H       1  UNL1        0.0000
     38 H          -1.8761   -0.3317   -6.8909 H       1  UNL1        0.0000
     39 H          -4.4105   -0.2987   -6.9656 H       1  UNL1        0.0000
     40 H          -4.3517   -1.5278   -8.2381 H       1  UNL1        0.0000
     41 H          -5.3232   -1.8154   -6.7885 H       1  UNL1        0.0000
@<TRIPOS>BOND
     1    40    15    1
     2    37    14    1
     3    34    13    1
     4    15    39    1
     5    15    41    1
     6    15    12    1
     7    14    38    1
     8    14    36    1
     9    14    12    1
    10    13    12    1
    11    13    35    1
    12    13    33    1
    13    12     1    1
    14     1     2    1
    15    28    10    1
    16    31    11    1
    17    32    11    1
    18    11     2    1
    19    11    30    1
    20    27    10    1
    21     2    10    1
    22     2     3    1
    23    10    29    1
    24    22     8    1
    25    20     7    1
    26     3     7    1
    27     3     4    1
    28    17     4    1
    29     7     6    1
    30     4     5    2
    31     6    19    1
    32     6    16    1
    33     5    18    1
    34     5    16    1
    35     8    23    1
    36     8    16    1
    37     8    21    1
    38    16     9    1
    39     9    25    1
    40     9    24    1
    41     9    26    1
