@<TRIPOS>MOLECULE
2,8,9,18,27
 44 44 0 0 0
SMALL
GASTEIGER

@<TRIPOS>ATOM
      1 SI          8.2653    6.5712   10.4605 Si      1  UNL1        0.0000
      2 C           7.5867    6.5072   13.3097 C.2     1  UNL1        0.0000
      3 C           7.9488    7.3173   12.1890 C.3     1  UNL1        0.0000
      4 C           7.3829    9.7376   11.4220 C.3     1  UNL1        0.0000
      5 H           6.8752   10.6095   11.8310 H       1  UNL1        0.0000
      6 H           6.9810    9.5347   10.4271 H       1  UNL1        0.0000
      7 H           8.4377    9.9883   11.3078 H       1  UNL1        0.0000
      8 C           6.6827    7.2269   14.1289 C.2     1  UNL1        0.0000
      9 C           7.2317    8.5474   12.3302 C.2     1  UNL1        0.0000
     10 C           8.1012    5.1222   13.6031 C.3     1  UNL1        0.0000
     11 H           7.5148    4.3552   13.0816 H       1  UNL1        0.0000
     12 H           8.0490    4.9153   14.6720 H       1  UNL1        0.0000
     13 H           9.1405    5.0335   13.2918 H       1  UNL1        0.0000
     14 C           6.1370    6.7619   15.4536 C.3     1  UNL1        0.0000
     15 H           5.2639    7.3457   15.7459 H       1  UNL1        0.0000
     16 H           6.8880    6.8688   16.2408 H       1  UNL1        0.0000
     17 H           5.8421    5.7116   15.4065 H       1  UNL1        0.0000
     18 C           6.4631    8.5028   13.5219 C.2     1  UNL1        0.0000
     19 C           9.5225    5.1113   10.4940 C.3     1  UNL1        0.0000
     20 H           9.7303    4.7838    9.4799 H       1  UNL1        0.0000
     21 H           9.1675    4.2509   11.0500 H       1  UNL1        0.0000
     22 H          10.4676    5.4215   10.9278 H       1  UNL1        0.0000
     23 C           5.7378    9.6594   14.1594 C.3     1  UNL1        0.0000
     24 H           6.4305   10.2552   14.7603 H       1  UNL1        0.0000
     25 H           4.9431    9.3125   14.8201 H       1  UNL1        0.0000
     26 H           5.2966   10.3172   13.4098 H       1  UNL1        0.0000
     27 N           6.5939    6.2741   10.1644 N.3     1  UNL1        0.0000
     28 C           5.9931    5.2913    9.2839 C.3     1  UNL1        0.0000
     29 C           6.2439    3.8660    9.8162 C.3     1  UNL1        0.0000
     30 H           5.9334    3.8062   10.8633 H       1  UNL1        0.0000
     31 H           7.3010    3.6247    9.7466 H       1  UNL1        0.0000
     32 H           5.6813    3.1344    9.2396 H       1  UNL1        0.0000
     33 C           4.4684    5.5358    9.2488 C.3     1  UNL1        0.0000
     34 H           4.2634    6.5473    8.8931 H       1  UNL1        0.0000
     35 H           4.0425    5.4162   10.2561 H       1  UNL1        0.0000
     36 H           3.9882    4.8253    8.5769 H       1  UNL1        0.0000
     37 C           6.5521    5.4132    7.8578 C.3     1  UNL1        0.0000
     38 H           7.6178    5.2034    7.8606 H       1  UNL1        0.0000
     39 H           6.4039    6.4261    7.4914 H       1  UNL1        0.0000
     40 H           6.0561    4.7151    7.1879 H       1  UNL1        0.0000
     41 C           9.0749    7.7965    9.2175 C.3     1  UNL1        0.0000
     42 H           8.3595    8.5004    8.8069 H       1  UNL1        0.0000
     43 H           9.5114    7.2554    8.3849 H       1  UNL1        0.0000
     44 H           9.8708    8.3653    9.6852 H       1  UNL1        0.0000
@<TRIPOS>BOND
     1    40    37    1
     2    39    37    1
     3    37    38    1
     4    37    28    1
     5    43    41    1
     6    36    33    1
     7    42    41    1
     8    34    33    1
     9    41    44    1
    10    41     1    1
    11    32    29    1
    12    33    28    1
    13    33    35    1
    14    28    29    1
    15    28    27    1
    16    20    19    1
    17    31    29    1
    18    29    30    1
    19    27     1    1
    20     6     4    1
    21     1    19    1
    22     1     3    1
    23    19    22    1
    24    19    21    1
    25     7     4    1
    26     4     5    1
    27     4     9    1
    28     3     9    1
    29     3     2    1
    30     9    18    2
    31    11    10    1
    32    13    10    1
    33     2    10    1
    34     2     8    2
    35    26    23    1
    36    18     8    1
    37    18    23    1
    38    10    12    1
    39     8    14    1
    40    23    24    1
    41    23    25    1
    42    17    14    1
    43    14    15    1
    44    14    16    1
