@<TRIPOS>MOLECULE
2,4,5,6,7
 45 46 0 0 0
SMALL
GASTEIGER

@<TRIPOS>ATOM
      1 SI          2.2918    1.6159    2.8336 Si      1  UNL1        0.0000
      2 N           3.4733    2.8270    2.4773 N.3     1  UNL1        0.0000
      3 C           1.8297    2.5495    4.4176 C.3     1  UNL1        0.0000
      4 C           2.7886    2.6628    5.4704 C.2     1  UNL1        0.0000
      5 C           2.6430    3.9368    6.0813 C.2     1  UNL1        0.0000
      6 C           1.6330    4.6442    5.3764 C.2     1  UNL1        0.0000
      7 C           1.1508    3.8007    4.3402 C.2     1  UNL1        0.0000
      8 C           3.7271    1.5873    5.9321 C.3     1  UNL1        0.0000
      9 H           3.6852    0.7327    5.2601 H       1  UNL1        0.0000
     10 H           3.4586    1.2535    6.9367 H       1  UNL1        0.0000
     11 H           4.7552    1.9577    5.9621 H       1  UNL1        0.0000
     12 C           3.3406    4.4018    7.3244 C.3     1  UNL1        0.0000
     13 H           4.3022    3.9034    7.4392 H       1  UNL1        0.0000
     14 H           2.7298    4.1755    8.2018 H       1  UNL1        0.0000
     15 H           3.5106    5.4782    7.3007 H       1  UNL1        0.0000
     16 C           1.0940    5.9963    5.7338 C.3     1  UNL1        0.0000
     17 H           0.6325    6.4685    4.8682 H       1  UNL1        0.0000
     18 H           1.8859    6.6495    6.1011 H       1  UNL1        0.0000
     19 H           0.3398    5.9048    6.5189 H       1  UNL1        0.0000
     20 C           0.0349    4.1441    3.3993 C.3     1  UNL1        0.0000
     21 H          -0.0964    3.3556    2.6616 H       1  UNL1        0.0000
     22 H           0.2440    5.0793    2.8750 H       1  UNL1        0.0000
     23 H          -0.9004    4.2667    3.9497 H       1  UNL1        0.0000
     24 C           0.9637    0.9497    1.6107 C.3     1  UNL1        0.0000
     25 H          -0.0543    0.9753    1.9918 H       1  UNL1        0.0000
     26 H           0.9446    1.3498    0.6010 H       1  UNL1        0.0000
     27 C           1.5638   -0.4636    1.6977 C.3     1  UNL1        0.0000
     28 H           0.8166   -1.2274    1.9050 H       1  UNL1        0.0000
     29 H           2.0670   -0.7318    0.7700 H       1  UNL1        0.0000
     30 C           2.5730   -0.2902    2.8451 C.3     1  UNL1        0.0000
     31 H           3.5633   -0.6709    2.6086 H       1  UNL1        0.0000
     32 H           2.2413   -0.7917    3.7511 H       1  UNL1        0.0000
     33 C           4.5488    2.7492    1.5041 C.3     1  UNL1        0.0000
     34 C           5.0001    4.1642    1.1045 C.3     1  UNL1        0.0000
     35 H           4.1547    4.7219    0.6968 H       1  UNL1        0.0000
     36 H           5.7777    4.1054    0.3452 H       1  UNL1        0.0000
     37 H           5.4029    4.7021    1.9682 H       1  UNL1        0.0000
     38 C           4.0843    2.0149    0.2403 C.3     1  UNL1        0.0000
     39 H           3.2165    2.5190   -0.1781 H       1  UNL1        0.0000
     40 H           3.8150    0.9899    0.4759 H       1  UNL1        0.0000
     41 H           4.8786    2.0052   -0.5021 H       1  UNL1        0.0000
     42 C           5.7295    1.9940    2.1386 C.3     1  UNL1        0.0000
     43 H           6.0324    2.4940    3.0600 H       1  UNL1        0.0000
     44 H           6.5753    1.9645    1.4562 H       1  UNL1        0.0000
     45 H           5.4308    0.9755    2.3772 H       1  UNL1        0.0000
@<TRIPOS>BOND
     1    41    38    1
     2    39    38    1
     3    38    40    1
     4    38    33    1
     5    36    34    1
     6    26    24    1
     7    35    34    1
     8    29    27    1
     9    34    33    1
    10    34    37    1
    11    44    42    1
    12    33    42    1
    13    33     2    1
    14    24    27    1
    15    24    25    1
    16    24     1    1
    17    27    28    1
    18    27    30    1
    19    42    45    1
    20    42    43    1
    21     2     1    1
    22    31    30    1
    23    21    20    1
    24     1    30    1
    25     1     3    1
    26    30    32    1
    27    22    20    1
    28    20    23    1
    29    20     7    1
    30     7     3    1
    31     7     6    2
    32     3     4    1
    33    17    16    1
    34     9     8    1
    35     6    16    1
    36     6     5    1
    37     4     8    1
    38     4     5    2
    39    16    18    1
    40    16    19    1
    41     8    11    1
    42     8    10    1
    43     5    12    1
    44    15    12    1
    45    12    13    1
    46    12    14    1
