@<TRIPOS>MOLECULE
2,3,4,5,6,7
 51 52 0 0 0
SMALL
GASTEIGER

@<TRIPOS>ATOM
      1 SI         10.4431   -3.8284    6.8137 Si      1  UNL1        0.0000
      2 N          11.5751   -3.4954    8.0895 N.3     1  UNL1        0.0000
      3 C           9.8126   -2.0316    6.9460 C.3     1  UNL1        0.0000
      4 C           9.0547   -1.6064    8.0800 C.2     1  UNL1        0.0000
      5 C           9.4139   -0.2714    8.4002 C.2     1  UNL1        0.0000
      6 C          10.4156    0.1439    7.4836 C.2     1  UNL1        0.0000
      7 C          10.6781   -0.9414    6.6072 C.2     1  UNL1        0.0000
      8 C           7.9617   -2.3799    8.7595 C.3     1  UNL1        0.0000
      9 H           7.4454   -3.0134    8.0408 H       1  UNL1        0.0000
     10 H           7.2354   -1.6974    9.1992 H       1  UNL1        0.0000
     11 H           8.3619   -3.0092    9.5594 H       1  UNL1        0.0000
     12 C           8.7583    0.5699    9.4550 C.3     1  UNL1        0.0000
     13 H           9.3647    1.4415    9.6958 H       1  UNL1        0.0000
     14 H           8.6093   -0.0053   10.3695 H       1  UNL1        0.0000
     15 H           7.7841    0.9207    9.1057 H       1  UNL1        0.0000
     16 C          11.0094    1.5180    7.3741 C.3     1  UNL1        0.0000
     17 H          10.9420    2.0508    8.3216 H       1  UNL1        0.0000
     18 H          10.4739    2.0993    6.6191 H       1  UNL1        0.0000
     19 H          12.0606    1.4676    7.0893 H       1  UNL1        0.0000
     20 C          11.6266   -0.8974    5.4430 C.3     1  UNL1        0.0000
     21 H          11.1942   -1.4139    4.5877 H       1  UNL1        0.0000
     22 H          12.5804   -1.3716    5.6935 H       1  UNL1        0.0000
     23 H          11.8254    0.1336    5.1537 H       1  UNL1        0.0000
     24 C          11.0613   -4.3313    5.0703 C.3     1  UNL1        0.0000
     25 H          11.7729   -3.6300    4.6383 H       1  UNL1        0.0000
     26 H          11.5702   -5.2946    5.1246 H       1  UNL1        0.0000
     27 C           9.8583   -4.4765    4.1400 C.3     1  UNL1        0.0000
     28 H           9.3290   -3.5235    4.0771 H       1  UNL1        0.0000
     29 H          10.2045   -4.7304    3.1339 H       1  UNL1        0.0000
     30 C           8.8874   -5.5572    4.6067 C.3     1  UNL1        0.0000
     31 H           9.4315   -6.4968    4.7315 H       1  UNL1        0.0000
     32 H           8.1375   -5.7130    3.8269 H       1  UNL1        0.0000
     33 C           8.1721   -5.2186    5.9116 C.3     1  UNL1        0.0000
     34 H           7.3931   -5.9665    6.0860 H       1  UNL1        0.0000
     35 H           7.6814   -4.2486    5.8065 H       1  UNL1        0.0000
     36 C           9.1259   -5.1873    7.1039 C.3     1  UNL1        0.0000
     37 H           9.6099   -6.1609    7.1800 H       1  UNL1        0.0000
     38 H           8.5624   -5.0504    8.0251 H       1  UNL1        0.0000
     39 C          12.7170   -4.3041    8.4728 C.3     1  UNL1        0.0000
     40 C          12.3846   -5.7991    8.3753 C.3     1  UNL1        0.0000
     41 H          12.1775   -6.0750    7.3455 H       1  UNL1        0.0000
     42 H          11.5102   -6.0190    8.9829 H       1  UNL1        0.0000
     43 H          13.2220   -6.3933    8.7326 H       1  UNL1        0.0000
     44 C          13.1216   -3.9997    9.9258 C.3     1  UNL1        0.0000
     45 H          13.4272   -2.9550   10.0340 H       1  UNL1        0.0000
     46 H          13.9571   -4.6328   10.2190 H       1  UNL1        0.0000
     47 H          12.2812   -4.1982   10.5935 H       1  UNL1        0.0000
     48 C          13.8935   -3.9761    7.5364 C.3     1  UNL1        0.0000
     49 H          13.6327   -4.2332    6.5121 H       1  UNL1        0.0000
     50 H          14.7799   -4.5344    7.8275 H       1  UNL1        0.0000
     51 H          14.1148   -2.9089    7.5872 H       1  UNL1        0.0000
@<TRIPOS>BOND
     1    29    27    1
     2    32    30    1
     3    28    27    1
     4    27    30    1
     5    27    24    1
     6    21    20    1
     7    30    31    1
     8    30    33    1
     9    25    24    1
    10    24    26    1
    11    24     1    1
    12    23    20    1
    13    20    22    1
    14    20     7    1
    15    35    33    1
    16    33    34    1
    17    33    36    1
    18    49    48    1
    19     7     3    1
    20     7     6    2
    21    18    16    1
    22     1     3    1
    23     1    36    1
    24     1     2    1
    25     3     4    1
    26    19    16    1
    27    36    37    1
    28    36    38    1
    29    41    40    1
    30    16     6    1
    31    16    17    1
    32     6     5    1
    33    48    51    1
    34    48    50    1
    35    48    39    1
    36     9     8    1
    37     4     5    2
    38     4     8    1
    39     2    39    1
    40    40    39    1
    41    40    43    1
    42    40    42    1
    43     5    12    1
    44    39    44    1
    45     8    10    1
    46     8    11    1
    47    15    12    1
    48    12    13    1
    49    12    14    1
    50    44    45    1
    51    44    46    1
    52    44    47    1
