@<TRIPOS>MOLECULE
2,3,4,5,6,7
 48 49 0 0 0
SMALL
GASTEIGER

@<TRIPOS>ATOM
      1 SI         -2.1949   -1.1590    2.9412 Si      1  UNL1        0.0000
      2 N          -1.6199    0.4325    2.5559 N.3     1  UNL1        0.0000
      3 C          -1.2081   -1.0807    4.5659 C.3     1  UNL1        0.0000
      4 C           0.2135   -1.1988    4.5693 C.3     1  UNL1        0.0000
      5 C           0.7417   -0.3556    5.5832 C.2     1  UNL1        0.0000
      6 C          -0.3399    0.3278    6.1931 C.2     1  UNL1        0.0000
      7 C          -1.5348   -0.0835    5.5425 C.3     1  UNL1        0.0000
      8 C           1.0492   -2.1419    3.7588 C.3     1  UNL1        0.0000
      9 H           0.5043   -2.5010    2.8901 H       1  UNL1        0.0000
     10 H           1.3422   -3.0015    4.3673 H       1  UNL1        0.0000
     11 H           1.9597   -1.6462    3.4178 H       1  UNL1        0.0000
     12 C           2.1838   -0.3018    5.9887 C.3     1  UNL1        0.0000
     13 H           2.3474    0.4507    6.7571 H       1  UNL1        0.0000
     14 H           2.8190   -0.0673    5.1320 H       1  UNL1        0.0000
     15 H           2.4966   -1.2709    6.3828 H       1  UNL1        0.0000
     16 C          -0.2432    1.2321    7.3863 C.3     1  UNL1        0.0000
     17 H          -1.1379    1.8446    7.4858 H       1  UNL1        0.0000
     18 H           0.6174    1.8977    7.3072 H       1  UNL1        0.0000
     19 H          -0.1325    0.6375    8.2968 H       1  UNL1        0.0000
     20 C          -2.9104    0.3904    5.9097 C.3     1  UNL1        0.0000
     21 H          -3.6098    0.2116    5.0960 H       1  UNL1        0.0000
     22 H          -2.9018    1.4612    6.1244 H       1  UNL1        0.0000
     23 H          -3.2705   -0.1319    6.7996 H       1  UNL1        0.0000
     24 C          -4.0698   -1.5774    3.0763 C.3     1  UNL1        0.0000
     25 H          -4.4644   -1.6163    4.0889 H       1  UNL1        0.0000
     26 H          -4.6716   -0.8534    2.5276 H       1  UNL1        0.0000
     27 C          -4.1969   -2.9493    2.4166 C.3     1  UNL1        0.0000
     28 H          -3.9118   -3.7188    3.1362 H       1  UNL1        0.0000
     29 H          -5.2237   -3.1469    2.1022 H       1  UNL1        0.0000
     30 C          -3.2406   -3.0121    1.2310 C.3     1  UNL1        0.0000
     31 H          -3.5743   -2.3143    0.4612 H       1  UNL1        0.0000
     32 H          -3.2327   -4.0118    0.7921 H       1  UNL1        0.0000
     33 C          -1.8550   -2.6101    1.7279 C.3     1  UNL1        0.0000
     34 H          -1.1958   -2.3651    0.8975 H       1  UNL1        0.0000
     35 H          -1.4188   -3.4593    2.2529 H       1  UNL1        0.0000
     36 C          -2.1224    1.3606    1.5581 C.3     1  UNL1        0.0000
     37 C          -2.6548    0.6149    0.3280 C.3     1  UNL1        0.0000
     38 H          -3.5053   -0.0034    0.5983 H       1  UNL1        0.0000
     39 H          -1.8742   -0.0195   -0.0845 H       1  UNL1        0.0000
     40 H          -2.9701    1.3247   -0.4330 H       1  UNL1        0.0000
     41 C          -0.9926    2.2988    1.0980 C.3     1  UNL1        0.0000
     42 H          -0.6301    2.9095    1.9304 H       1  UNL1        0.0000
     43 H          -1.3567    2.9653    0.3182 H       1  UNL1        0.0000
     44 H          -0.1644    1.7111    0.6973 H       1  UNL1        0.0000
     45 C          -3.2552    2.1917    2.1875 C.3     1  UNL1        0.0000
     46 H          -2.8885    2.6916    3.0857 H       1  UNL1        0.0000
     47 H          -4.0825    1.5414    2.4646 H       1  UNL1        0.0000
     48 H          -3.6145    2.9406    1.4859 H       1  UNL1        0.0000
@<TRIPOS>BOND
     1    40    37    1
     2    39    37    1
     3    43    41    1
     4    37    38    1
     5    37    36    1
     6    31    30    1
     7    44    41    1
     8    32    30    1
     9    34    33    1
    10    41    36    1
    11    41    42    1
    12    30    33    1
    13    30    27    1
    14    48    45    1
    15    36    45    1
    16    36     2    1
    17    33    35    1
    18    33     1    1
    19    29    27    1
    20    45    47    1
    21    45    46    1
    22    27    24    1
    23    27    28    1
    24    26    24    1
    25     2     1    1
    26     9     8    1
    27     1    24    1
    28     1     3    1
    29    24    25    1
    30    11     8    1
    31     8    10    1
    32     8     4    1
    33     3     4    1
    34     3     7    1
    35     4     5    1
    36    21    20    1
    37    14    12    1
    38     7    20    1
    39     7     6    1
    40     5    12    1
    41     5     6    2
    42    20    22    1
    43    20    23    1
    44    12    15    1
    45    12    13    1
    46     6    16    1
    47    18    16    1
    48    16    17    1
    49    16    19    1
