@<TRIPOS>MOLECULE
2,3,4,6,7,8
 50 53 0 0 0
SMALL
GASTEIGER

@<TRIPOS>ATOM
      1 SI          1.8978    2.7352    7.3335 Si      1  UNL1        0.0000
      2 N           3.5120    2.1060    7.1781 N.3     1  UNL1        0.0000
      3 C           2.5285    4.3276    8.1372 C.3     1  UNL1        0.0000
      4 C           3.2959    5.2573    7.3911 C.3     1  UNL1        0.0000
      5 H           3.0958    5.5266    6.3590 H       1  UNL1        0.0000
      6 C           4.2190    5.8856    8.2603 C.ar    1  UNL1        0.0000
      7 C           4.0560    5.3039    9.5539 C.ar    1  UNL1        0.0000
      8 C           3.0351    4.3288    9.4588 C.3     1  UNL1        0.0000
      9 H           2.6046    3.7644   10.2784 H       1  UNL1        0.0000
     10 C           0.9310    3.1130    5.7185 C.3     1  UNL1        0.0000
     11 H           1.5426    3.6508    4.9999 H       1  UNL1        0.0000
     12 H           0.0560    3.7198    5.9271 H       1  UNL1        0.0000
     13 H           0.5854    2.2014    5.2422 H       1  UNL1        0.0000
     14 C           0.7483    1.7558    8.5165 C.3     1  UNL1        0.0000
     15 H           0.2749    0.9223    8.0093 H       1  UNL1        0.0000
     16 H          -0.0408    2.3922    8.9033 H       1  UNL1        0.0000
     17 H           1.3011    1.3585    9.3634 H       1  UNL1        0.0000
     18 C           3.8997    0.9551    6.3850 C.3     1  UNL1        0.0000
     19 C           5.1746    0.3254    6.9725 C.3     1  UNL1        0.0000
     20 H           6.0000    1.0388    6.9284 H       1  UNL1        0.0000
     21 H           5.4464   -0.5660    6.4102 H       1  UNL1        0.0000
     22 H           4.9980    0.0454    8.0111 H       1  UNL1        0.0000
     23 C           4.1790    1.4065    4.9395 C.3     1  UNL1        0.0000
     24 H           3.2621    1.7728    4.4842 H       1  UNL1        0.0000
     25 H           4.5604    0.5800    4.3441 H       1  UNL1        0.0000
     26 H           4.9136    2.2134    4.9478 H       1  UNL1        0.0000
     27 C           2.8030   -0.1195    6.3766 C.3     1  UNL1        0.0000
     28 H           2.5667   -0.4112    7.3964 H       1  UNL1        0.0000
     29 H           3.1391   -0.9962    5.8278 H       1  UNL1        0.0000
     30 H           1.9014    0.2591    5.9048 H       1  UNL1        0.0000
     31 C           5.1560    6.9526    8.0496 C.ar    1  UNL1        0.0000
     32 C           5.3160    7.5434    6.7887 C.ar    1  UNL1        0.0000
     33 H           4.7169    7.1847    5.9633 H       1  UNL1        0.0000
     34 C           6.2188    8.5594    6.5885 C.ar    1  UNL1        0.0000
     35 H           6.3332    9.0047    5.6108 H       1  UNL1        0.0000
     36 C           6.9880    9.0105    7.6556 C.ar    1  UNL1        0.0000
     37 H           7.7025    9.8070    7.5066 H       1  UNL1        0.0000
     38 C           6.8415    8.4469    8.9029 C.ar    1  UNL1        0.0000
     39 H           7.4557    8.8265    9.7041 H       1  UNL1        0.0000
     40 C           5.9298    7.4114    9.1451 C.ar    1  UNL1        0.0000
     41 C           4.8257    5.7744   10.6700 C.ar    1  UNL1        0.0000
     42 C           4.6654    5.2229   11.9488 C.ar    1  UNL1        0.0000
     43 H           3.9476    4.4269   12.0879 H       1  UNL1        0.0000
     44 C           5.4063    5.6720   13.0150 C.ar    1  UNL1        0.0000
     45 H           5.2738    5.2370   13.9950 H       1  UNL1        0.0000
     46 C           6.3319    6.6921   12.8230 C.ar    1  UNL1        0.0000
     47 H           6.9202    7.0500   13.6554 H       1  UNL1        0.0000
     48 C           6.5011    7.2491   11.5756 C.ar    1  UNL1        0.0000
     49 H           7.2280    8.0387   11.4695 H       1  UNL1        0.0000
     50 C           5.7627    6.8183   10.4659 C.ar    1  UNL1        0.0000
@<TRIPOS>BOND
     1    25    23    1
     2    24    23    1
     3    23    26    1
     4    23    18    1
     5    11    10    1
     6    13    10    1
     7    35    34    1
     8    10    12    1
     9    10     1    1
    10    29    27    1
    11    30    27    1
    12    33    32    1
    13     5     4    1
    14    27    18    1
    15    27    28    1
    16    18    19    1
    17    18     2    1
    18    21    19    1
    19    34    32   ar
    20    34    36   ar
    21    32    31   ar
    22    20    19    1
    23    19    22    1
    24     2     1    1
    25     1     3    1
    26     1    14    1
    27     4     3    1
    28     4     6    1
    29    37    36    1
    30    36    38   ar
    31    15    14    1
    32    31     6   ar
    33    31    40   ar
    34     3     8    1
    35     6     7   ar
    36    14    16    1
    37    14    17    1
    38    38    40   ar
    39    38    39    1
    40    40    50   ar
    41     8     7    1
    42     8     9    1
    43     7    41   ar
    44    50    41   ar
    45    50    48   ar
    46    41    42   ar
    47    49    48    1
    48    48    46   ar
    49    42    43    1
    50    42    44   ar
    51    46    44   ar
    52    46    47    1
    53    44    45    1
