@<TRIPOS>MOLECULE
2,3,4,6,7,8
 52 54 0 0 0
SMALL
GASTEIGER

@<TRIPOS>ATOM
      1 SI          7.9670    2.8638    0.0911 Si      1  UNL1        0.0000
      2 N           8.0108    3.9498    1.4483 N.3     1  UNL1        0.0000
      3 C           6.0943    3.0353   -0.0807 C.3     1  UNL1        0.0000
      4 C           5.4828    4.2376   -0.5115 C.2     1  UNL1        0.0000
      5 H           5.8753    4.8982   -1.2795 H       1  UNL1        0.0000
      6 C           4.2380    4.3906    0.1412 C.2     1  UNL1        0.0000
      7 C           4.0688    3.2677    1.0102 C.2     1  UNL1        0.0000
      8 C           5.2313    2.4713    0.8871 C.2     1  UNL1        0.0000
      9 H           5.3635    1.4902    1.3304 H       1  UNL1        0.0000
     10 C           8.8702    3.4069   -1.5131 C.3     1  UNL1        0.0000
     11 H           8.6324    4.4326   -1.7802 H       1  UNL1        0.0000
     12 H           8.5874    2.7729   -2.3471 H       1  UNL1        0.0000
     13 H           9.9473    3.3337   -1.4027 H       1  UNL1        0.0000
     14 C           8.4517    1.0463    0.4713 C.3     1  UNL1        0.0000
     15 H           9.5244    0.8985    0.4135 H       1  UNL1        0.0000
     16 H           7.9907    0.3689   -0.2402 H       1  UNL1        0.0000
     17 H           8.1297    0.7514    1.4662 H       1  UNL1        0.0000
     18 C           9.2204    4.4911    2.0402 C.3     1  UNL1        0.0000
     19 C           8.9493    4.9166    3.4930 C.3     1  UNL1        0.0000
     20 H           8.2093    5.7180    3.5186 H       1  UNL1        0.0000
     21 H           9.8681    5.2703    3.9575 H       1  UNL1        0.0000
     22 H           8.5755    4.0639    4.0603 H       1  UNL1        0.0000
     23 C           9.6896    5.7177    1.2364 C.3     1  UNL1        0.0000
     24 H           9.9714    5.4149    0.2314 H       1  UNL1        0.0000
     25 H          10.5475    6.1845    1.7153 H       1  UNL1        0.0000
     26 H           8.8792    6.4429    1.1681 H       1  UNL1        0.0000
     27 C          10.3474    3.4473    2.0586 C.3     1  UNL1        0.0000
     28 H          10.0138    2.5540    2.5800 H       1  UNL1        0.0000
     29 H          11.2225    3.8463    2.5661 H       1  UNL1        0.0000
     30 H          10.6297    3.1745    1.0462 H       1  UNL1        0.0000
     31 C           3.3231    5.5147   -0.0462 C.ar    1  UNL1        0.0000
     32 C           3.1466    6.0899   -1.3058 C.ar    1  UNL1        0.0000
     33 H           3.6682    5.6740   -2.1564 H       1  UNL1        0.0000
     34 C           2.3001    7.1692   -1.4773 C.ar    1  UNL1        0.0000
     35 H           2.1731    7.6000   -2.4603 H       1  UNL1        0.0000
     36 C           1.6130    7.6966   -0.3971 C.ar    1  UNL1        0.0000
     37 H           0.9513    8.5393   -0.5325 H       1  UNL1        0.0000
     38 C           1.7801    7.1366    0.8601 C.ar    1  UNL1        0.0000
     39 H           1.2497    7.5468    1.7076 H       1  UNL1        0.0000
     40 C           2.6267    6.0603    1.0374 C.ar    1  UNL1        0.0000
     41 H           2.7607    5.6331    2.0247 H       1  UNL1        0.0000
     42 C           2.8525    2.8477    1.7051 C.ar    1  UNL1        0.0000
     43 C           2.9259    2.0854    2.8742 C.ar    1  UNL1        0.0000
     44 H           3.8940    1.8373    3.2894 H       1  UNL1        0.0000
     45 C           1.7795    1.6544    3.5136 C.ar    1  UNL1        0.0000
     46 H           1.8582    1.0727    4.4212 H       1  UNL1        0.0000
     47 C           0.5323    1.9656    2.9981 C.ar    1  UNL1        0.0000
     48 H          -0.3634    1.6318    3.5010 H       1  UNL1        0.0000
     49 C           0.4441    2.6991    1.8264 C.ar    1  UNL1        0.0000
     50 H          -0.5242    2.9310    1.4065 H       1  UNL1        0.0000
     51 C           1.5878    3.1308    1.1832 C.ar    1  UNL1        0.0000
     52 H           1.5050    3.6834    0.2592 H       1  UNL1        0.0000
@<TRIPOS>BOND
     1    35    34    1
     2    12    10    1
     3    33    32    1
     4    11    10    1
     5    10    13    1
     6    10     1    1
     7    34    32   ar
     8    34    36   ar
     9    32    31   ar
    10     5     4    1
    11    37    36    1
    12     4     3    1
    13     4     6    2
    14    36    38   ar
    15    16    14    1
    16     3     1    1
    17     3     8    1
    18    31     6    1
    19    31    40   ar
    20     1    14    1
    21     1     2    1
    22     6     7    1
    23    24    23    1
    24    52    51    1
    25    15    14    1
    26    14    17    1
    27    38    40   ar
    28    38    39    1
    29     8     7    2
    30     8     9    1
    31     7    42    1
    32    40    41    1
    33    30    27    1
    34    26    23    1
    35    51    42   ar
    36    51    49   ar
    37    23    25    1
    38    23    18    1
    39    50    49    1
    40     2    18    1
    41    42    43   ar
    42    49    47   ar
    43    18    27    1
    44    18    19    1
    45    27    29    1
    46    27    28    1
    47    43    44    1
    48    43    45   ar
    49    47    48    1
    50    47    45   ar
    51    19    20    1
    52    19    21    1
    53    19    22    1
    54    45    46    1
