@<TRIPOS>MOLECULE
2,3,4,6,8,10
 32 32 0 0 0
SMALL
GASTEIGER

@<TRIPOS>ATOM
      1 SI          1.3216    2.3162   11.0022 Si      1  UNL1        0.0000
      2 N           0.7409    1.8320   12.5754 N.3     1  UNL1        0.0000
      3 C          -0.3912    2.9049   10.4430 C.3     1  UNL1        0.0000
      4 C          -1.4469    1.9694   10.2655 C.2     1  UNL1        0.0000
      5 H          -1.3494    1.0035    9.7793 H       1  UNL1        0.0000
      6 C          -2.6545    2.5521   10.6923 C.2     1  UNL1        0.0000
      7 H          -3.6473    2.1336   10.5682 H       1  UNL1        0.0000
      8 C          -2.3625    3.8516   11.1630 C.2     1  UNL1        0.0000
      9 H          -3.0933    4.5948   11.4627 H       1  UNL1        0.0000
     10 C          -0.9795    4.0610   11.0187 C.2     1  UNL1        0.0000
     11 H          -0.4607    4.9918   11.2225 H       1  UNL1        0.0000
     12 C           2.5957    3.7498   11.0110 C.3     1  UNL1        0.0000
     13 H           3.5844    3.4017   11.2903 H       1  UNL1        0.0000
     14 H           2.3121    4.5362   11.7040 H       1  UNL1        0.0000
     15 H           2.6738    4.1934   10.0239 H       1  UNL1        0.0000
     16 C           1.9959    0.9357    9.8533 C.3     1  UNL1        0.0000
     17 H           2.1361    1.3136    8.8461 H       1  UNL1        0.0000
     18 H           1.3196    0.0880    9.7972 H       1  UNL1        0.0000
     19 H           2.9581    0.5711   10.1981 H       1  UNL1        0.0000
     20 C           1.4288    0.9947   13.5389 C.3     1  UNL1        0.0000
     21 C           2.9254    1.3355   13.5998 C.3     1  UNL1        0.0000
     22 H           3.3985    1.1319   12.6434 H       1  UNL1        0.0000
     23 H           3.4182    0.7405   14.3650 H       1  UNL1        0.0000
     24 H           3.0558    2.3890   13.8352 H       1  UNL1        0.0000
     25 C           1.2565   -0.4852   13.1490 C.3     1  UNL1        0.0000
     26 H           1.7312   -0.6761   12.1900 H       1  UNL1        0.0000
     27 H           0.1917   -0.7136   13.0711 H       1  UNL1        0.0000
     28 H           1.7048   -1.1337   13.8983 H       1  UNL1        0.0000
     29 C           0.8251    1.2000   14.9412 C.3     1  UNL1        0.0000
     30 H           0.8647    2.2540   15.2197 H       1  UNL1        0.0000
     31 H           1.3867    0.6245   15.6752 H       1  UNL1        0.0000
     32 H          -0.2154    0.8656   14.9547 H       1  UNL1        0.0000
@<TRIPOS>BOND
     1    17    16    1
     2     5     4    1
     3    18    16    1
     4    16    19    1
     5    16     1    1
     6    15    12    1
     7     4     3    1
     8     4     6    2
     9     3     1    1
    10     3    10    1
    11     7     6    1
    12     6     8    1
    13     1    12    1
    14     1     2    1
    15    12    13    1
    16    12    14    1
    17    10     8    2
    18    10    11    1
    19     8     9    1
    20    26    25    1
    21     2    20    1
    22    22    21    1
    23    27    25    1
    24    25    20    1
    25    25    28    1
    26    20    21    1
    27    20    29    1
    28    21    24    1
    29    21    23    1
    30    29    32    1
    31    29    30    1
    32    29    31    1
