@<TRIPOS>MOLECULE
2,3,4,5,6,7
 48 49 0 0 0
SMALL
GASTEIGER

@<TRIPOS>ATOM
      1 SI         -0.2507   13.1286    0.8837 Si      1  UNL1        0.0000
      2 N           0.1037   11.7345    1.8250 N.3     1  UNL1        0.0000
      3 C           1.5079   13.8410    1.0105 C.3     1  UNL1        0.0000
      4 C           1.9968   14.4177    2.2267 C.2     1  UNL1        0.0000
      5 C           3.3923   14.1996    2.3027 C.2     1  UNL1        0.0000
      6 C           3.7836   13.4660    1.1416 C.2     1  UNL1        0.0000
      7 C           2.6280   13.2416    0.3575 C.2     1  UNL1        0.0000
      8 C           1.1703   15.2672    3.1588 C.3     1  UNL1        0.0000
      9 C           4.3878   14.7990    3.2619 C.3     1  UNL1        0.0000
     10 C           5.2193   13.2415    0.7479 C.3     1  UNL1        0.0000
     11 C           2.6118   12.6514   -1.0263 C.3     1  UNL1        0.0000
     12 C          -1.6285   14.3112    1.5261 C.3     1  UNL1        0.0000
     13 C          -0.8487   12.7307   -0.9075 C.3     1  UNL1        0.0000
     14 C          -0.8921   10.9268    2.4970 C.3     1  UNL1        0.0000
     15 C          -1.5078   11.7056    3.6429 C.ar    1  UNL1        0.0000
     16 C          -2.8803   11.8267    3.8047 C.ar    1  UNL1        0.0000
     17 C          -3.4004   12.5848    4.8409 C.ar    1  UNL1        0.0000
     18 C          -2.5527   13.2249    5.7276 C.ar    1  UNL1        0.0000
     19 C          -1.1796   13.1048    5.5749 C.ar    1  UNL1        0.0000
     20 C          -0.6600   12.3524    4.5364 C.ar    1  UNL1        0.0000
     21 C          -0.2524    9.6396    3.0492 C.3     1  UNL1        0.0000
     22 H           0.5702   15.9690    2.5793 H       1  UNL1        0.0000
     23 H           0.4844   14.6729    3.7698 H       1  UNL1        0.0000
     24 H           1.8063   15.8513    3.8247 H       1  UNL1        0.0000
     25 H           5.0819   15.4486    2.7224 H       1  UNL1        0.0000
     26 H           3.8993   15.3994    4.0270 H       1  UNL1        0.0000
     27 H           4.9785   14.0266    3.7601 H       1  UNL1        0.0000
     28 H           5.6718   14.1827    0.4218 H       1  UNL1        0.0000
     29 H           5.8086   12.8668    1.5867 H       1  UNL1        0.0000
     30 H           5.3026   12.5347   -0.0757 H       1  UNL1        0.0000
     31 H           2.6089   13.4490   -1.7743 H       1  UNL1        0.0000
     32 H           3.4947   12.0379   -1.2050 H       1  UNL1        0.0000
     33 H           1.7246   12.0428   -1.1852 H       1  UNL1        0.0000
     34 H          -2.5997   13.8701    1.3257 H       1  UNL1        0.0000
     35 H          -1.5721   14.4822    2.5951 H       1  UNL1        0.0000
     36 H          -1.6011   15.2743    1.0277 H       1  UNL1        0.0000
     37 H          -1.9321   12.7641   -0.9572 H       1  UNL1        0.0000
     38 H          -0.4698   13.4456   -1.6294 H       1  UNL1        0.0000
     39 H          -0.5424   11.7390   -1.2268 H       1  UNL1        0.0000
     40 H          -1.6999   10.6424    1.7998 H       1  UNL1        0.0000
     41 H          -3.5466   11.3304    3.1131 H       1  UNL1        0.0000
     42 H          -4.4707   12.6787    4.9548 H       1  UNL1        0.0000
     43 H          -2.9589   13.8176    6.5341 H       1  UNL1        0.0000
     44 H          -0.5159   13.6021    6.2689 H       1  UNL1        0.0000
     45 H           0.4186   12.2485    4.3867 H       1  UNL1        0.0000
     46 H           0.0702    8.9995    2.2298 H       1  UNL1        0.0000
     47 H           0.6204    9.9070    3.6555 H       1  UNL1        0.0000
     48 H          -0.9714    9.0950    3.6609 H       1  UNL1        0.0000
@<TRIPOS>BOND
     1    31    11    1
     2    38    13    1
     3    39    13    1
     4    32    11    1
     5    33    11    1
     6    11     7    1
     7    37    13    1
     8    13     1    1
     9    30    10    1
    10     7     3    1
    11     7     6    2
    12    28    10    1
    13    10     6    1
    14    10    29    1
    15     1     3    1
    16     1    12    1
    17     1     2    1
    18     3     4    1
    19    36    12    1
    20     6     5    1
    21    34    12    1
    22    12    35    1
    23    40    14    1
    24     2    14    1
    25     4     5    2
    26     4     8    1
    27    46    21    1
    28     5     9    1
    29    14    21    1
    30    14    15    1
    31    22     8    1
    32    25     9    1
    33    21    47    1
    34    21    48    1
    35    41    16    1
    36     8    23    1
    37     8    24    1
    38     9    27    1
    39     9    26    1
    40    15    16   ar
    41    15    20   ar
    42    16    17   ar
    43    45    20    1
    44    20    19   ar
    45    17    42    1
    46    17    18   ar
    47    19    18   ar
    48    19    44    1
    49    18    43    1
