@<TRIPOS>MOLECULE
2,3,4,5,6,7
 48 49 0 0 0
SMALL
GASTEIGER

@<TRIPOS>ATOM
      1 SI          5.4480    6.9864   10.9184 Si      1  UNL1        0.0000
      2 N           5.0921    5.5853   11.8492 N.3     1  UNL1        0.0000
      3 C           3.6880    7.6948   11.0422 C.3     1  UNL1        0.0000
      4 C           3.1934    8.2739   12.2547 C.2     1  UNL1        0.0000
      5 C           1.7980    8.0529   12.3262 C.2     1  UNL1        0.0000
      6 C           1.4128    7.3146   11.1661 C.2     1  UNL1        0.0000
      7 C           2.5718    7.0903   10.3871 C.2     1  UNL1        0.0000
      8 C           4.0148    9.1276   13.1875 C.3     1  UNL1        0.0000
      9 C           0.7978    8.6530   13.2798 C.3     1  UNL1        0.0000
     10 C          -0.0207    7.0853   10.7670 C.3     1  UNL1        0.0000
     11 C           2.5957    6.4918    9.0070 C.3     1  UNL1        0.0000
     12 C           6.0491    6.6071    9.1243 C.3     1  UNL1        0.0000
     13 C           6.8217    8.1661   11.5745 C.3     1  UNL1        0.0000
     14 C           6.0877    4.7750   12.5183 C.3     1  UNL1        0.0000
     15 C           6.7059    5.5487   13.6663 C.ar    1  UNL1        0.0000
     16 C           5.8606    6.2037   14.5561 C.ar    1  UNL1        0.0000
     17 C           6.3830    6.9519   15.5962 C.ar    1  UNL1        0.0000
     18 C           7.7565    7.0590   15.7545 C.ar    1  UNL1        0.0000
     19 C           8.6017    6.4096   14.8721 C.ar    1  UNL1        0.0000
     20 C           8.0788    5.6560   13.8341 C.ar    1  UNL1        0.0000
     21 C           5.4473    3.4872   13.0683 C.3     1  UNL1        0.0000
     22 H           4.6245    9.8209   12.6081 H       1  UNL1        0.0000
     23 H           3.3749    9.7210   13.8415 H       1  UNL1        0.0000
     24 H           4.6913    8.5357   13.8113 H       1  UNL1        0.0000
     25 H           0.0992    9.2924   12.7343 H       1  UNL1        0.0000
     26 H           0.2130    7.8808   13.7852 H       1  UNL1        0.0000
     27 H           1.2817    9.2641   14.0394 H       1  UNL1        0.0000
     28 H          -0.4730    8.0238   10.4330 H       1  UNL1        0.0000
     29 H          -0.0988    6.3736    9.9471 H       1  UNL1        0.0000
     30 H          -0.6133    6.7147   11.6052 H       1  UNL1        0.0000
     31 H           2.6031    7.2844    8.2538 H       1  UNL1        0.0000
     32 H           3.4835    5.8815    8.8572 H       1  UNL1        0.0000
     33 H           1.7135    5.8774    8.8274 H       1  UNL1        0.0000
     34 H           7.1305    6.6736    9.0671 H       1  UNL1        0.0000
     35 H           5.7708    5.6068    8.8068 H       1  UNL1        0.0000
     36 H           5.6438    7.3098    8.4048 H       1  UNL1        0.0000
     37 H           7.7943    7.7282   11.3736 H       1  UNL1        0.0000
     38 H           6.7944    9.1330   11.0836 H       1  UNL1        0.0000
     39 H           6.7619    8.3287   12.6446 H       1  UNL1        0.0000
     40 H           6.8945    4.4913   11.8196 H       1  UNL1        0.0000
     41 H           4.7815    6.1105   14.4011 H       1  UNL1        0.0000
     42 H           5.7214    7.4564   16.2870 H       1  UNL1        0.0000
     43 H           8.1649    7.6488   16.5619 H       1  UNL1        0.0000
     44 H           9.6723    6.4930   14.9907 H       1  UNL1        0.0000
     45 H           8.7432    5.1526   13.1459 H       1  UNL1        0.0000
     46 H           5.1225    2.8493   12.2480 H       1  UNL1        0.0000
     47 H           6.1666    2.9403   13.6776 H       1  UNL1        0.0000
     48 H           4.5759    3.7543   13.6768 H       1  UNL1        0.0000
@<TRIPOS>BOND
     1    31    11    1
     2    36    12    1
     3    35    12    1
     4    33    11    1
     5    32    11    1
     6    11     7    1
     7    34    12    1
     8    12     1    1
     9    29    10    1
    10     7     3    1
    11     7     6    2
    12    28    10    1
    13    10     6    1
    14    10    30    1
    15     1     3    1
    16     1    13    1
    17     1     2    1
    18     3     4    1
    19    38    13    1
    20     6     5    1
    21    37    13    1
    22    13    39    1
    23    40    14    1
    24     2    14    1
    25    46    21    1
    26     4     5    2
    27     4     8    1
    28     5     9    1
    29    14    21    1
    30    14    15    1
    31    22     8    1
    32    25     9    1
    33    21    48    1
    34    21    47    1
    35    45    20    1
    36     8    24    1
    37     8    23    1
    38     9    26    1
    39     9    27    1
    40    15    20   ar
    41    15    16   ar
    42    20    19   ar
    43    41    16    1
    44    16    17   ar
    45    19    44    1
    46    19    18   ar
    47    17    18   ar
    48    17    42    1
    49    18    43    1
