@<TRIPOS>MOLECULE
2,3,4,5,6,7
 48 49 0 0 0
SMALL
GASTEIGER

@<TRIPOS>ATOM
      1 SI          3.3621    7.6328    4.6539 Si      1  UNL1        0.0000
      2 N           3.9554    6.0188    4.7967 N.3     1  UNL1        0.0000
      3 C           5.0468    8.2129    3.9303 C.3     1  UNL1        0.0000
      4 C           5.5043    7.8158    2.6286 C.3     1  UNL1        0.0000
      5 C           6.9133    7.6352    2.6618 C.2     1  UNL1        0.0000
      6 C           7.3485    7.8659    4.0018 C.2     1  UNL1        0.0000
      7 C           6.2075    8.2278    4.7690 C.3     1  UNL1        0.0000
      8 C           4.6950    7.7008    1.3657 C.3     1  UNL1        0.0000
      9 C           7.7707    7.3469    1.4583 C.3     1  UNL1        0.0000
     10 C           8.7564    7.7696    4.5297 C.3     1  UNL1        0.0000
     11 C           6.2492    8.5769    6.2316 C.3     1  UNL1        0.0000
     12 C           2.8765    8.4517    6.3207 C.3     1  UNL1        0.0000
     13 C           1.8492    7.9436    3.5090 C.3     1  UNL1        0.0000
     14 C           3.2317    4.7680    4.9362 C.3     1  UNL1        0.0000
     15 C           2.4140    4.7526    6.2299 C.3     1  UNL1        0.0000
     16 C           2.4131    4.5421    3.6742 C.ar    1  UNL1        0.0000
     17 C           1.0590    4.2402    3.6676 C.ar    1  UNL1        0.0000
     18 C           0.3751    4.1121    2.4684 C.ar    1  UNL1        0.0000
     19 C           1.0328    4.2800    1.2639 C.ar    1  UNL1        0.0000
     20 C           2.3874    4.5765    1.2596 C.ar    1  UNL1        0.0000
     21 C           3.0690    4.7095    2.4551 C.ar    1  UNL1        0.0000
     22 H           3.6304    7.7106    1.5802 H       1  UNL1        0.0000
     23 H           4.9451    6.7810    0.8287 H       1  UNL1        0.0000
     24 H           4.9130    8.5393    0.6990 H       1  UNL1        0.0000
     25 H           8.8252    7.4870    1.6873 H       1  UNL1        0.0000
     26 H           7.5098    8.0230    0.6431 H       1  UNL1        0.0000
     27 H           7.6294    6.3216    1.1035 H       1  UNL1        0.0000
     28 H           8.7730    7.2125    5.4713 H       1  UNL1        0.0000
     29 H           9.1725    8.7631    4.7148 H       1  UNL1        0.0000
     30 H           9.4051    7.2581    3.8182 H       1  UNL1        0.0000
     31 H           5.4803    9.3081    6.4673 H       1  UNL1        0.0000
     32 H           7.2184    9.0018    6.4919 H       1  UNL1        0.0000
     33 H           6.0883    7.6879    6.8511 H       1  UNL1        0.0000
     34 H           3.4666    8.0707    7.1470 H       1  UNL1        0.0000
     35 H           1.8330    8.2575    6.5468 H       1  UNL1        0.0000
     36 H           2.9996    9.5286    6.2838 H       1  UNL1        0.0000
     37 H           1.7775    7.2239    2.7002 H       1  UNL1        0.0000
     38 H           1.8712    8.9391    3.0792 H       1  UNL1        0.0000
     39 H           0.9348    7.8627    4.0868 H       1  UNL1        0.0000
     40 H           3.9868    3.9462    5.0018 H       1  UNL1        0.0000
     41 H           3.0816    4.9859    7.0571 H       1  UNL1        0.0000
     42 H           1.9662    3.7773    6.4028 H       1  UNL1        0.0000
     43 H           1.6401    5.5149    6.1832 H       1  UNL1        0.0000
     44 H           0.5238    4.1026    4.5933 H       1  UNL1        0.0000
     45 H          -0.6798    3.8803    2.4789 H       1  UNL1        0.0000
     46 H           0.4965    4.1797    0.3324 H       1  UNL1        0.0000
     47 H           2.9108    4.7021    0.3232 H       1  UNL1        0.0000
     48 H           4.1386    4.9501    2.4577 H       1  UNL1        0.0000
@<TRIPOS>BOND
     1    47    20    1
     2    46    19    1
     3    26     9    1
     4    24     8    1
     5    23     8    1
     6    27     9    1
     7    20    19   ar
     8    20    21   ar
     9    19    18   ar
    10     8    22    1
    11     8     4    1
    12     9    25    1
    13     9     5    1
    14    21    48    1
    15    21    16   ar
    16    18    45    1
    17    18    17   ar
    18     4     5    1
    19     4     3    1
    20     5     6    2
    21    37    13    1
    22    38    13    1
    23    13    39    1
    24    13     1    1
    25    17    16   ar
    26    17    44    1
    27    16    14    1
    28    30    10    1
    29     3     1    1
    30     3     7    1
    31     6    10    1
    32     6     7    1
    33    10    29    1
    34    10    28    1
    35     1     2    1
    36     1    12    1
    37     7    11    1
    38     2    14    1
    39    14    40    1
    40    14    15    1
    41    43    15    1
    42    15    42    1
    43    15    41    1
    44    11    31    1
    45    11    32    1
    46    11    33    1
    47    36    12    1
    48    12    35    1
    49    12    34    1
