@<TRIPOS>MOLECULE
2,3,4,5,6,7
 54 56 0 0 0
SMALL
GASTEIGER

@<TRIPOS>ATOM
      1 SI          5.8324    0.3529   12.0337 Si      1  UNL1        0.0000
      2 N           4.8047    1.0722   13.2090 N.3     1  UNL1        0.0000
      3 C           7.3892    1.1866   12.7653 C.3     1  UNL1        0.0000
      4 C           7.8668    0.8302   14.0634 C.2     1  UNL1        0.0000
      5 C           8.4352    1.9711   14.6825 C.2     1  UNL1        0.0000
      6 C           8.3026    3.0632   13.7751 C.2     1  UNL1        0.0000
      7 C           7.6525    2.5817   12.6113 C.2     1  UNL1        0.0000
      8 C           7.7623   -0.5396   14.6821 C.3     1  UNL1        0.0000
      9 H           8.4957   -0.6643   15.4784 H       1  UNL1        0.0000
     10 H           7.9487   -1.3045   13.9305 H       1  UNL1        0.0000
     11 H           6.7588   -0.7046   15.0996 H       1  UNL1        0.0000
     12 C           9.1657    1.9982   16.0000 C.3     1  UNL1        0.0000
     13 H           8.7488    1.2684   16.6955 H       1  UNL1        0.0000
     14 H           9.1049    2.9838   16.4640 H       1  UNL1        0.0000
     15 H          10.2245    1.7649   15.8591 H       1  UNL1        0.0000
     16 C           8.8787    4.4453   13.9411 C.3     1  UNL1        0.0000
     17 H           9.1035    4.6555   14.9862 H       1  UNL1        0.0000
     18 H           8.1855    5.2075   13.5783 H       1  UNL1        0.0000
     19 H           9.8109    4.5423   13.3782 H       1  UNL1        0.0000
     20 C           7.3691    3.4177   11.3905 C.3     1  UNL1        0.0000
     21 H           7.3703    2.7938   10.5000 H       1  UNL1        0.0000
     22 H           8.1369    4.1826   11.2673 H       1  UNL1        0.0000
     23 H           6.3945    3.9184   11.4570 H       1  UNL1        0.0000
     24 C           5.9002   -1.5717   11.9959 C.3     1  UNL1        0.0000
     25 H           5.8122   -2.0145   12.9819 H       1  UNL1        0.0000
     26 H           6.8236   -1.9272   11.5510 H       1  UNL1        0.0000
     27 H           5.0841   -1.9529   11.3898 H       1  UNL1        0.0000
     28 C           5.5184    0.7920   10.1866 C.3     1  UNL1        0.0000
     29 H           4.6847    0.2080    9.8104 H       1  UNL1        0.0000
     30 H           6.3805    0.5606    9.5698 H       1  UNL1        0.0000
     31 H           5.2672    1.8368   10.0404 H       1  UNL1        0.0000
     32 C           3.3645    0.9311   13.3403 C.3     1  UNL1        0.0000
     33 H           2.9942    1.7320   14.0147 H       1  UNL1        0.0000
     34 C           3.0315   -0.4002   14.0289 C.3     1  UNL1        0.0000
     35 H           3.3840   -1.2338   13.4280 H       1  UNL1        0.0000
     36 H           1.9633   -0.4985   14.2096 H       1  UNL1        0.0000
     37 H           3.5583   -0.4180   14.9848 H       1  UNL1        0.0000
     38 C           2.6963    1.1358   11.9960 C.ar    1  UNL1        0.0000
     39 C           1.9831    0.1486   11.3664 C.ar    1  UNL1        0.0000
     40 H           1.8541   -0.8138   11.8347 H       1  UNL1        0.0000
     41 C           1.3989    0.3530   10.1074 C.ar    1  UNL1        0.0000
     42 H           0.8470   -0.4536    9.6467 H       1  UNL1        0.0000
     43 C           1.5227    1.5553    9.4755 C.ar    1  UNL1        0.0000
     44 H           1.0717    1.7237    8.5081 H       1  UNL1        0.0000
     45 C           2.2520    2.6019   10.0776 C.ar    1  UNL1        0.0000
     46 C           2.3973    3.8481    9.4328 C.ar    1  UNL1        0.0000
     47 H           1.9284    3.9863    8.4688 H       1  UNL1        0.0000
     48 C           3.1143    4.8587   10.0070 C.ar    1  UNL1        0.0000
     49 H           3.2192    5.8109    9.5081 H       1  UNL1        0.0000
     50 C           3.7269    4.6551   11.2519 C.ar    1  UNL1        0.0000
     51 H           4.2969    5.4586   11.6991 H       1  UNL1        0.0000
     52 C           3.6088    3.4564   11.9040 C.ar    1  UNL1        0.0000
     53 H           4.1245    3.3161   12.8584 H       1  UNL1        0.0000
     54 C           2.8580    2.3948   11.3465 C.ar    1  UNL1        0.0000
@<TRIPOS>BOND
     1    47    46    1
     2    44    43    1
     3    46    48   ar
     4    46    45   ar
     5    43    45   ar
     6    43    41   ar
     7    49    48    1
     8    30    28    1
     9    42    41    1
    10    29    28    1
    11    48    50   ar
    12    31    28    1
    13    45    54   ar
    14    41    39   ar
    15    28     1    1
    16    21    20    1
    17    50    51    1
    18    50    52   ar
    19    22    20    1
    20    54    52   ar
    21    54    38   ar
    22    39    40    1
    23    39    38   ar
    24    27    24    1
    25    20    23    1
    26    20     7    1
    27    26    24    1
    28    52    53    1
    29    24     1    1
    30    24    25    1
    31    38    32    1
    32     1     3    1
    33     1     2    1
    34     7     3    1
    35     7     6    2
    36     3     4    1
    37     2    32    1
    38    32    33    1
    39    32    34    1
    40    19    16    1
    41    35    34    1
    42    18    16    1
    43     6    16    1
    44     6     5    1
    45    10     8    1
    46    16    17    1
    47    34    36    1
    48    34    37    1
    49     4     8    1
    50     4     5    2
    51     8    11    1
    52     8     9    1
    53     5    12    1
    54    15    12    1
    55    12    14    1
    56    12    13    1
