@<TRIPOS>MOLECULE
2,4,5,12,13
 48 50 0 0 0
SMALL
GASTEIGER

@<TRIPOS>ATOM
      1 SI          1.5260    4.0832   10.1320 Si      1  UNL1        0.0000
      2 N           1.2240    4.4230    8.4565 N.3     1  UNL1        0.0000
      3 C           3.1072    5.1326   10.0738 C.3     1  UNL1        0.0000
      4 C           4.2551    4.7324    9.3241 C.2     1  UNL1        0.0000
      5 C           4.9134    5.8678    8.7999 C.2     1  UNL1        0.0000
      6 C           4.4714    8.4231    9.1962 C.ar    1  UNL1        0.0000
      7 C           3.6436    9.2737    9.8934 C.ar    1  UNL1        0.0000
      8 H           3.8435   10.3362    9.8654 H       1  UNL1        0.0000
      9 C           2.5566    8.8296   10.6691 C.ar    1  UNL1        0.0000
     10 C           2.2720    7.4865   10.7299 C.ar    1  UNL1        0.0000
     11 H           1.4625    7.1300   11.3499 H       1  UNL1        0.0000
     12 C           3.0916    6.5688   10.0521 C.ar    1  UNL1        0.0000
     13 C           4.2142    7.0329    9.2718 C.ar    1  UNL1        0.0000
     14 C           0.2323    4.7093   11.4082 C.3     1  UNL1        0.0000
     15 H          -0.2371    5.6375   11.0977 H       1  UNL1        0.0000
     16 H          -0.5509    3.9705   11.5475 H       1  UNL1        0.0000
     17 H           0.6924    4.8743   12.3774 H       1  UNL1        0.0000
     18 C           1.8398    2.2574   10.6502 C.3     1  UNL1        0.0000
     19 H           2.3228    1.6773    9.8713 H       1  UNL1        0.0000
     20 H           0.9029    1.7678   10.8967 H       1  UNL1        0.0000
     21 H           2.4667    2.2098   11.5351 H       1  UNL1        0.0000
     22 C           0.1120    3.9548    7.6891 C.3     1  UNL1        0.0000
     23 H           0.1865    4.3074    6.6479 H       1  UNL1        0.0000
     24 C          -0.2072    2.4350    7.6926 C.3     1  UNL1        0.0000
     25 H           0.0340    1.8941    6.7788 H       1  UNL1        0.0000
     26 H           0.2478    1.9331    8.5403 H       1  UNL1        0.0000
     27 C          -1.6905    2.7574    7.9113 C.3     1  UNL1        0.0000
     28 H          -2.2847    2.6491    7.0058 H       1  UNL1        0.0000
     29 H          -2.1788    2.2144    8.7177 H       1  UNL1        0.0000
     30 C          -1.3269    4.2164    8.2142 C.3     1  UNL1        0.0000
     31 H          -1.3314    4.4398    9.2762 H       1  UNL1        0.0000
     32 H          -1.8986    4.9732    7.6790 H       1  UNL1        0.0000
     33 C           4.7173    3.3074    9.2120 C.3     1  UNL1        0.0000
     34 H           4.7206    2.8467   10.1995 H       1  UNL1        0.0000
     35 H           5.7242    3.2436    8.8043 H       1  UNL1        0.0000
     36 H           4.0530    2.7285    8.5665 H       1  UNL1        0.0000
     37 C           6.2693    5.8453    8.1510 C.3     1  UNL1        0.0000
     38 H           7.0417    6.0419    8.8999 H       1  UNL1        0.0000
     39 H           6.3629    6.5971    7.3715 H       1  UNL1        0.0000
     40 H           6.4703    4.8712    7.7088 H       1  UNL1        0.0000
     41 C           5.6320    8.9880    8.4255 C.3     1  UNL1        0.0000
     42 H           5.6427   10.0728    8.5072 H       1  UNL1        0.0000
     43 H           5.5686    8.7276    7.3689 H       1  UNL1        0.0000
     44 H           6.5754    8.6072    8.8135 H       1  UNL1        0.0000
     45 C           1.7691    9.8242   11.4676 C.3     1  UNL1        0.0000
     46 H           0.7915    9.4252   11.7259 H       1  UNL1        0.0000
     47 H           1.6335   10.7479   10.9103 H       1  UNL1        0.0000
     48 H           2.2986   10.0617   12.3917 H       1  UNL1        0.0000
@<TRIPOS>BOND
     1    23    22    1
     2    25    24    1
     3    28    27    1
     4    43    41    1
     5    39    37    1
     6    32    30    1
     7    22    24    1
     8    22    30    1
     9    22     2    1
    10    24    27    1
    11    24    26    1
    12    40    37    1
    13    27    30    1
    14    27    29    1
    15    37     5    1
    16    37    38    1
    17    30    31    1
    18    41    42    1
    19    41    44    1
    20    41     6    1
    21     2     1    1
    22    36    33    1
    23     5    13    1
    24     5     4    2
    25    35    33    1
    26     6    13   ar
    27     6     7   ar
    28    33     4    1
    29    33    34    1
    30    13    12   ar
    31     4     3    1
    32     8     7    1
    33    19    18    1
    34     7     9   ar
    35    12     3    1
    36    12    10   ar
    37     3     1    1
    38     1    18    1
    39     1    14    1
    40    18    20    1
    41    18    21    1
    42     9    10   ar
    43     9    45    1
    44    10    11    1
    45    47    45    1
    46    15    14    1
    47    14    16    1
    48    14    17    1
    49    45    46    1
    50    45    48    1
