@<TRIPOS>MOLECULE
2,3,4,6,7,16
 47 48 0 0 0
SMALL
GASTEIGER

@<TRIPOS>ATOM
      1 SI          3.7917   -2.3040    1.1612 Si      1  UNL1        0.0000
      2 N           3.8697   -0.7310    1.8938 N.3     1  UNL1        0.0000
      3 C           2.6143    0.1079   -1.8798 C.2     1  UNL1        0.0000
      4 C           2.4064   -1.0118   -1.0456 C.3     1  UNL1        0.0000
      5 H           1.4393   -1.4691   -0.8689 H       1  UNL1        0.0000
      6 C           3.6438   -1.5395   -0.5724 C.3     1  UNL1        0.0000
      7 C           4.6635   -0.6867   -1.1195 C.3     1  UNL1        0.0000
      8 C           6.0648   -0.6706   -0.9725 C.2     1  UNL1        0.0000
      9 H           6.5495   -1.4113   -0.3519 H       1  UNL1        0.0000
     10 C           6.8006    0.2586   -1.6655 C.2     1  UNL1        0.0000
     11 H           7.8757    0.2743   -1.5655 H       1  UNL1        0.0000
     12 C           6.1870    1.1969   -2.5138 C.2     1  UNL1        0.0000
     13 H           6.8073    1.8996   -3.0489 H       1  UNL1        0.0000
     14 C           4.8244    1.2370   -2.6667 C.2     1  UNL1        0.0000
     15 H           4.3639    1.9630   -3.3230 H       1  UNL1        0.0000
     16 C           4.0297    0.3145   -1.9586 C.2     1  UNL1        0.0000
     17 C           1.5746    0.8159   -2.7037 C.3     1  UNL1        0.0000
     18 H           1.7758    1.8921   -2.7129 H       1  UNL1        0.0000
     19 H           0.5874    0.6627   -2.2588 H       1  UNL1        0.0000
     20 C           1.5570    0.3055   -4.1537 C.3     1  UNL1        0.0000
     21 H           0.8567    0.9130   -4.7310 H       1  UNL1        0.0000
     22 H           2.5504    0.4302   -4.5889 H       1  UNL1        0.0000
     23 C           1.1500   -1.1594   -4.2394 C.3     1  UNL1        0.0000
     24 H           1.1368   -1.4893   -5.2755 H       1  UNL1        0.0000
     25 H           0.1564   -1.3049   -3.8203 H       1  UNL1        0.0000
     26 H           1.8519   -1.7819   -3.6898 H       1  UNL1        0.0000
     27 C           5.3336   -3.4011    1.4192 C.3     1  UNL1        0.0000
     28 H           6.2177   -2.8175    1.6512 H       1  UNL1        0.0000
     29 H           5.5424   -3.9881    0.5316 H       1  UNL1        0.0000
     30 H           5.1756   -4.0952    2.2372 H       1  UNL1        0.0000
     31 C           2.2395   -3.3683    1.5065 C.3     1  UNL1        0.0000
     32 H           2.2981   -3.8310    2.4861 H       1  UNL1        0.0000
     33 H           2.1548   -4.1684    0.7787 H       1  UNL1        0.0000
     34 H           1.3245   -2.7849    1.4696 H       1  UNL1        0.0000
     35 C           3.6924   -0.3695    3.2923 C.3     1  UNL1        0.0000
     36 C           4.0754    1.1166    3.4402 C.3     1  UNL1        0.0000
     37 H           5.0786    1.2830    3.0372 H       1  UNL1        0.0000
     38 H           4.0727    1.4066    4.4896 H       1  UNL1        0.0000
     39 H           3.3555    1.7526    2.9075 H       1  UNL1        0.0000
     40 C           2.2205   -0.5492    3.7016 C.3     1  UNL1        0.0000
     41 H           1.9641   -1.6044    3.7161 H       1  UNL1        0.0000
     42 H           1.5754   -0.0404    2.9825 H       1  UNL1        0.0000
     43 H           2.0454   -0.1328    4.6905 H       1  UNL1        0.0000
     44 C           4.5936   -1.2199    4.1959 C.3     1  UNL1        0.0000
     45 H           5.6324   -1.0955    3.9025 H       1  UNL1        0.0000
     46 H           4.3309   -2.2691    4.0982 H       1  UNL1        0.0000
     47 H           4.4796   -0.9229    5.2350 H       1  UNL1        0.0000
@<TRIPOS>BOND
     1    24    23    1
     2    21    20    1
     3    22    20    1
     4    23    20    1
     5    23    25    1
     6    23    26    1
     7    20    17    1
     8    15    14    1
     9    13    12    1
    10    18    17    1
    11    17    19    1
    12    17     3    1
    13    14    12    2
    14    14    16    1
    15    12    10    1
    16    16     3    2
    17    16     7    1
    18     3     4    1
    19    10    11    1
    20    10     8    2
    21     7     8    1
    22     7     6    1
    23     4     5    1
    24     4     6    1
    25     8     9    1
    26     6     1    1
    27    29    27    1
    28    33    31    1
    29     1    27    1
    30     1    31    1
    31     1     2    1
    32    27    28    1
    33    27    30    1
    34    34    31    1
    35    31    32    1
    36     2    35    1
    37    39    36    1
    38    42    40    1
    39    37    36    1
    40    35    36    1
    41    35    40    1
    42    35    44    1
    43    36    38    1
    44    40    41    1
    45    40    43    1
    46    45    44    1
    47    46    44    1
    48    44    47    1
