@<TRIPOS>MOLECULE
2,7,10,11,14,15
 49 50 0 0 0
SMALL
GASTEIGER

@<TRIPOS>ATOM
      1 SI          3.2903   -2.3368    1.4974 Si      1  UNL1        0.0000
      2 N           3.8477   -0.8556    2.1710 N.3     1  UNL1        0.0000
      3 C           6.7111    0.0067   -0.8816 C.2     1  UNL1        0.0000
      4 H           7.7623   -0.0549   -0.6404 H       1  UNL1        0.0000
      5 C           4.9463    1.1933   -2.0452 C.2     1  UNL1        0.0000
      6 H           4.6225    2.0039   -2.6869 H       1  UNL1        0.0000
      7 C           3.3250   -1.5909   -0.2646 C.3     1  UNL1        0.0000
      8 C           6.2725    1.0470   -1.7214 C.2     1  UNL1        0.0000
      9 H           6.9989    1.7459   -2.1082 H       1  UNL1        0.0000
     10 C           2.5795    0.2277   -1.5324 C.2     1  UNL1        0.0000
     11 C           4.0114    0.2771   -1.5206 C.2     1  UNL1        0.0000
     12 C           5.8371   -0.9283   -0.3790 C.2     1  UNL1        0.0000
     13 H           6.1923   -1.7496    0.2311 H       1  UNL1        0.0000
     14 C           4.4696   -0.8400   -0.7086 C.3     1  UNL1        0.0000
     15 C           2.1953   -0.9120   -0.7932 C.3     1  UNL1        0.0000
     16 H           1.1677   -1.2394   -0.6683 H       1  UNL1        0.0000
     17 C           4.2747   -1.5344    4.5112 C.3     1  UNL1        0.0000
     18 H           4.8878   -2.3685    4.1831 H       1  UNL1        0.0000
     19 H           3.2525   -1.8820    4.6348 H       1  UNL1        0.0000
     20 H           4.6473   -1.1766    5.4676 H       1  UNL1        0.0000
     21 C           1.1194   -0.5216   -4.0679 C.3     1  UNL1        0.0000
     22 H           0.0994   -0.6181   -3.6901 H       1  UNL1        0.0000
     23 H           1.7477   -1.2608   -3.5618 H       1  UNL1        0.0000
     24 C           1.6545    0.8823   -3.7780 C.3     1  UNL1        0.0000
     25 H           1.0300    1.6218   -4.2847 H       1  UNL1        0.0000
     26 H           2.6717    0.9717   -4.1687 H       1  UNL1        0.0000
     27 C           5.7660    0.0887    3.2871 C.3     1  UNL1        0.0000
     28 H           6.4131   -0.7480    3.0279 H       1  UNL1        0.0000
     29 H           6.1348    0.5482    4.2016 H       1  UNL1        0.0000
     30 H           5.8020    0.8246    2.4721 H       1  UNL1        0.0000
     31 C           1.4605   -2.6970    1.9469 C.3     1  UNL1        0.0000
     32 H           1.3752   -3.1641    2.9226 H       1  UNL1        0.0000
     33 H           0.9890   -3.3624    1.2317 H       1  UNL1        0.0000
     34 H           0.8943   -1.7661    1.9716 H       1  UNL1        0.0000
     35 C           4.3453   -3.9173    1.7125 C.3     1  UNL1        0.0000
     36 H           4.1361   -4.3882    2.6665 H       1  UNL1        0.0000
     37 H           5.4089   -3.7083    1.6720 H       1  UNL1        0.0000
     38 H           4.1213   -4.6396    0.9354 H       1  UNL1        0.0000
     39 C           1.6679    1.1716   -2.2688 C.3     1  UNL1        0.0000
     40 H           1.9985    2.2069   -2.1116 H       1  UNL1        0.0000
     41 H           0.6508    1.0782   -1.8733 H       1  UNL1        0.0000
     42 C           3.4227    0.7591    3.9304 C.3     1  UNL1        0.0000
     43 H           3.5329    1.6174    3.2480 H       1  UNL1        0.0000
     44 H           3.7000    1.0787    4.9342 H       1  UNL1        0.0000
     45 H           2.3767    0.4376    3.9393 H       1  UNL1        0.0000
     46 C           4.3165   -0.4152    3.4656 C.3     1  UNL1        0.0000
     47 C           1.1021   -0.8068   -5.5279 C.2     1  UNL1        0.0000
     48 H           2.0760   -0.7643   -6.0586 H       1  UNL1        0.0000
     49 C           0.4231   -1.1042   -6.5740 C.2     1  UNL1        0.0000
@<TRIPOS>BOND
     1    49    47    2
     2    48    47    1
     3    47    21    1
     4    25    24    1
     5    26    24    1
     6    21    24    1
     7    21    22    1
     8    21    23    1
     9    24    39    1
    10     6     5    1
    11    39    40    1
    12    39    41    1
    13    39    10    1
    14     9     8    1
    15     5     8    2
    16     5    11    1
    17     8     3    1
    18    10    11    2
    19    10    15    1
    20    11    14    1
    21     3     4    1
    22     3    12    2
    23    15    16    1
    24    15     7    1
    25    14    12    1
    26    14     7    1
    27    12    13    1
    28     7     1    1
    29    38    35    1
    30    33    31    1
    31     1    35    1
    32     1    31    1
    33     1     2    1
    34    37    35    1
    35    35    36    1
    36    31    34    1
    37    31    32    1
    38     2    46    1
    39    30    27    1
    40    28    27    1
    41    43    42    1
    42    27    46    1
    43    27    29    1
    44    46    42    1
    45    46    17    1
    46    42    45    1
    47    42    44    1
    48    18    17    1
    49    17    19    1
    50    17    20    1
