@<TRIPOS>MOLECULE
3,4,5,6,7,8
 41 42 0 0 0
SMALL
GASTEIGER

@<TRIPOS>ATOM
      1 S          -1.8269    3.4770    2.0439 S.2     1  UNL1        0.0000
      2 SI          2.8062    6.4110    1.8815 Si      1  UNL1        0.0000
      3 N           2.8462    5.6658    3.4543 N.3     1  UNL1        0.0000
      4 C          -0.1168    3.6292    1.7723 C.ar    1  UNL1        0.0000
      5 C           0.9978    2.7870    1.5783 C.2     1  UNL1        0.0000
      6 C           2.0947    3.6451    1.2749 C.2     1  UNL1        0.0000
      7 C           1.6697    5.0149    1.2658 C.3     1  UNL1        0.0000
      8 C           0.2783    4.9901    1.6053 C.ar    1  UNL1        0.0000
      9 C          -0.8345    5.8734    1.7248 C.ar    1  UNL1        0.0000
     10 H          -0.7789    6.9439    1.6259 H       1  UNL1        0.0000
     11 C          -1.9897    5.2086    1.9594 C.ar    1  UNL1        0.0000
     12 H          -2.9684    5.6244    2.1015 H       1  UNL1        0.0000
     13 C           0.9870    1.2887    1.5485 C.3     1  UNL1        0.0000
     14 H           1.1210    0.9308    0.5250 H       1  UNL1        0.0000
     15 H           0.0334    0.9155    1.9201 H       1  UNL1        0.0000
     16 H           1.7891    0.8751    2.1628 H       1  UNL1        0.0000
     17 C           3.4759    3.1603    0.9329 C.3     1  UNL1        0.0000
     18 H           3.9245    3.8082    0.1822 H       1  UNL1        0.0000
     19 H           3.4326    2.1464    0.5366 H       1  UNL1        0.0000
     20 H           4.1191    3.1528    1.8188 H       1  UNL1        0.0000
     21 C           4.4515    6.5658    0.9115 C.3     1  UNL1        0.0000
     22 H           4.9544    7.4928    1.1652 H       1  UNL1        0.0000
     23 H           4.2669    6.5839   -0.1575 H       1  UNL1        0.0000
     24 H           5.1365    5.7506    1.1184 H       1  UNL1        0.0000
     25 C           1.9266    8.1112    1.8499 C.3     1  UNL1        0.0000
     26 H           2.6268    8.9177    2.0403 H       1  UNL1        0.0000
     27 H           1.1471    8.1616    2.6056 H       1  UNL1        0.0000
     28 H           1.4732    8.2978    0.8819 H       1  UNL1        0.0000
     29 C           3.7181    5.9783    4.5717 C.3     1  UNL1        0.0000
     30 C           2.9977    5.6842    5.8989 C.3     1  UNL1        0.0000
     31 H           2.0795    6.2714    5.9590 H       1  UNL1        0.0000
     32 H           3.6384    5.9507    6.7374 H       1  UNL1        0.0000
     33 H           2.7488    4.6217    5.9773 H       1  UNL1        0.0000
     34 C           4.1175    7.4593    4.5577 C.3     1  UNL1        0.0000
     35 H           3.2266    8.0809    4.5880 H       1  UNL1        0.0000
     36 H           4.6785    7.6916    3.6571 H       1  UNL1        0.0000
     37 H           4.7362    7.6875    5.4219 H       1  UNL1        0.0000
     38 C           4.9813    5.1048    4.4698 C.3     1  UNL1        0.0000
     39 H           5.5283    5.3506    3.5622 H       1  UNL1        0.0000
     40 H           4.6972    4.0516    4.4392 H       1  UNL1        0.0000
     41 H           5.6288    5.2708    5.3272 H       1  UNL1        0.0000
@<TRIPOS>BOND
     1    23    21    1
     2    18    17    1
     3    14    13    1
     4    19    17    1
     5    28    25    1
     6    21    24    1
     7    21    22    1
     8    21     2    1
     9    17     6    1
    10    17    20    1
    11     7     6    1
    12     7     8    1
    13     7     2    1
    14     6     5    2
    15    13     5    1
    16    13    15    1
    17    13    16    1
    18     5     4    1
    19     8     9   ar
    20     8     4   ar
    21    10     9    1
    22     9    11   ar
    23     4     1   ar
    24    25     2    1
    25    25    26    1
    26    25    27    1
    27     2     3    1
    28    11     1   ar
    29    11    12    1
    30     3    29    1
    31    39    38    1
    32    36    34    1
    33    40    38    1
    34    38    29    1
    35    38    41    1
    36    34    29    1
    37    34    35    1
    38    34    37    1
    39    29    30    1
    40    30    31    1
    41    30    33    1
    42    30    32    1
