@<TRIPOS>MOLECULE
2,6,7,8,13
 42 44 0 0 0
SMALL
GASTEIGER

@<TRIPOS>ATOM
      1 SI         -0.5795    7.8093   13.6546 Si      1  UNL1        0.0000
      2 N          -0.8672    6.1015   13.8274 N.3     1  UNL1        0.0000
      3 C          -2.1158    8.9273   13.4329 C.3     1  UNL1        0.0000
      4 C           0.7359    8.2921   12.3546 C.3     1  UNL1        0.0000
      5 C           0.1680    7.7689   15.4097 C.3     1  UNL1        0.0000
      6 C           1.4285    7.1479   15.6146 C.2     1  UNL1        0.0000
      7 C           1.4475    6.4582   16.8419 C.2     1  UNL1        0.0000
      8 C           0.1859    6.6689   17.4755 C.ar    1  UNL1        0.0000
      9 C          -0.3330    6.2726   18.7225 C.ar    1  UNL1        0.0000
     10 C          -1.6130    6.6404   19.0524 C.ar    1  UNL1        0.0000
     11 C          -2.4032    7.4047   18.1752 C.ar    1  UNL1        0.0000
     12 C          -1.9271    7.8198   16.9564 C.ar    1  UNL1        0.0000
     13 C          -0.6180    7.4669   16.5763 C.ar    1  UNL1        0.0000
     14 C          -1.5329    5.1977   12.9054 C.3     1  UNL1        0.0000
     15 C          -3.0501    5.3870   12.9872 C.3     1  UNL1        0.0000
     16 C          -0.9339    5.3995   11.5292 C.ar    1  UNL1        0.0000
     17 C          -1.6223    5.9523   10.4594 C.ar    1  UNL1        0.0000
     18 C          -0.9826    6.1576    9.2469 C.ar    1  UNL1        0.0000
     19 C           0.3489    5.8180    9.0911 C.ar    1  UNL1        0.0000
     20 C           1.0440    5.2673   10.1562 C.ar    1  UNL1        0.0000
     21 C           0.4070    5.0610   11.3648 C.ar    1  UNL1        0.0000
     22 H          -1.9083    9.9369   13.7719 H       1  UNL1        0.0000
     23 H          -2.3857    8.9867   12.3835 H       1  UNL1        0.0000
     24 H          -2.9787    8.5600   13.9794 H       1  UNL1        0.0000
     25 H           1.5849    7.6155   12.3761 H       1  UNL1        0.0000
     26 H           0.3182    8.2568   11.3542 H       1  UNL1        0.0000
     27 H           1.1002    9.2996   12.5254 H       1  UNL1        0.0000
     28 H           2.2773    7.2397   14.9443 H       1  UNL1        0.0000
     29 H           2.3129    5.9873   17.2948 H       1  UNL1        0.0000
     30 H           0.2782    5.7004   19.4092 H       1  UNL1        0.0000
     31 H          -2.0276    6.3455   20.0049 H       1  UNL1        0.0000
     32 H          -3.4042    7.6726   18.4797 H       1  UNL1        0.0000
     33 H          -2.5303    8.4391   16.3066 H       1  UNL1        0.0000
     34 H          -1.3049    4.1608   13.2243 H       1  UNL1        0.0000
     35 H          -3.3201    6.4016   12.7066 H       1  UNL1        0.0000
     36 H          -3.5583    4.6784   12.3377 H       1  UNL1        0.0000
     37 H          -3.3637    5.2139   14.0177 H       1  UNL1        0.0000
     38 H          -2.6620    6.2219   10.5558 H       1  UNL1        0.0000
     39 H          -1.5306    6.5856    8.4199 H       1  UNL1        0.0000
     40 H           0.8431    5.9789    8.1445 H       1  UNL1        0.0000
     41 H           2.0831    4.9963   10.0408 H       1  UNL1        0.0000
     42 H           0.9458    4.6350   12.2029 H       1  UNL1        0.0000
@<TRIPOS>BOND
     1    40    19    1
     2    39    18    1
     3    19    18   ar
     4    19    20   ar
     5    18    17   ar
     6    41    20    1
     7    20    21   ar
     8    17    38    1
     9    17    16   ar
    10    26     4    1
    11    21    16   ar
    12    21    42    1
    13    16    14    1
    14    36    15    1
    15     4    25    1
    16     4    27    1
    17     4     1    1
    18    23     3    1
    19    35    15    1
    20    14    15    1
    21    14    34    1
    22    14     2    1
    23    15    37    1
    24     3     1    1
    25     3    22    1
    26     3    24    1
    27     1     2    1
    28     1     5    1
    29    28     6    1
    30     5     6    1
    31     5    13    1
    32     6     7    2
    33    33    12    1
    34    13    12   ar
    35    13     8   ar
    36     7    29    1
    37     7     8    1
    38    12    11   ar
    39     8     9   ar
    40    11    32    1
    41    11    10   ar
    42     9    10   ar
    43     9    30    1
    44    10    31    1
