@<TRIPOS>MOLECULE
2,3,4,5,6,7
 44 44 0 0 0
SMALL
GASTEIGER

@<TRIPOS>ATOM
      1 SI          3.3357   -1.4569   -1.8377 Si      1  UNL1        0.0000
      2 N           2.9747   -2.6633   -3.0056 N.3     1  UNL1        0.0000
      3 C           1.5759   -1.4493   -1.1212 C.2     1  UNL1        0.0000
      4 C           1.1032   -2.5396   -0.3305 C.3     1  UNL1        0.0000
      5 C          -0.3058   -2.6072   -0.4381 C.2     1  UNL1        0.0000
      6 C          -0.7248   -1.5638   -1.3054 C.2     1  UNL1        0.0000
      7 C           0.4306   -0.8729   -1.7459 C.2     1  UNL1        0.0000
      8 C           1.9433   -3.3749    0.5976 C.3     1  UNL1        0.0000
      9 C          -1.2123   -3.4720    0.3985 C.3     1  UNL1        0.0000
     10 C          -2.1479   -1.1240   -1.5246 C.3     1  UNL1        0.0000
     11 C           0.3998    0.3851   -2.5721 C.3     1  UNL1        0.0000
     12 C           4.6688   -1.7602   -0.4730 C.3     1  UNL1        0.0000
     13 C           3.9545    0.2456   -2.5092 C.3     1  UNL1        0.0000
     14 C           3.9350   -3.5489   -3.6364 C.3     1  UNL1        0.0000
     15 C           3.2927   -4.2084   -4.8730 C.3     1  UNL1        0.0000
     16 C           4.3436   -4.6627   -2.6495 C.3     1  UNL1        0.0000
     17 C           5.1960   -2.7993   -4.0941 C.3     1  UNL1        0.0000
     18 H           2.5206   -2.7303    1.2606 H       1  UNL1        0.0000
     19 H           2.6412   -4.0105    0.0471 H       1  UNL1        0.0000
     20 H           1.3108   -4.0091    1.2171 H       1  UNL1        0.0000
     21 H          -1.0735   -3.2508    1.4593 H       1  UNL1        0.0000
     22 H          -1.0115   -4.5359    0.2521 H       1  UNL1        0.0000
     23 H          -2.2550   -3.2800    0.1559 H       1  UNL1        0.0000
     24 H          -2.5493   -0.6806   -0.6096 H       1  UNL1        0.0000
     25 H          -2.7978   -1.9536   -1.8038 H       1  UNL1        0.0000
     26 H          -2.1985   -0.3701   -2.3068 H       1  UNL1        0.0000
     27 H          -0.1258    1.1790   -2.0350 H       1  UNL1        0.0000
     28 H          -0.1196    0.2294   -3.5221 H       1  UNL1        0.0000
     29 H           1.4080    0.7318   -2.7748 H       1  UNL1        0.0000
     30 H           5.6621   -1.6099   -0.8854 H       1  UNL1        0.0000
     31 H           4.6412   -2.7563   -0.0477 H       1  UNL1        0.0000
     32 H           4.5533   -1.0526    0.3418 H       1  UNL1        0.0000
     33 H           5.0296    0.2156   -2.6552 H       1  UNL1        0.0000
     34 H           3.7505    1.0408   -1.7992 H       1  UNL1        0.0000
     35 H           3.5130    0.5251   -3.4592 H       1  UNL1        0.0000
     36 H           3.1669   -3.4763   -5.6679 H       1  UNL1        0.0000
     37 H           2.3093   -4.6149   -4.6089 H       1  UNL1        0.0000
     38 H           3.9263   -5.0111   -5.2478 H       1  UNL1        0.0000
     39 H           4.9714   -5.4072   -3.1358 H       1  UNL1        0.0000
     40 H           3.4405   -5.1414   -2.2618 H       1  UNL1        0.0000
     41 H           4.8950   -4.2318   -1.8190 H       1  UNL1        0.0000
     42 H           4.9165   -1.9712   -4.7396 H       1  UNL1        0.0000
     43 H           5.8588   -3.4661   -4.6410 H       1  UNL1        0.0000
     44 H           5.7274   -2.4018   -3.2351 H       1  UNL1        0.0000
@<TRIPOS>BOND
     1    36    15    1
     2    38    15    1
     3    15    37    1
     4    15    14    1
     5    42    17    1
     6    43    17    1
     7    17    14    1
     8    17    44    1
     9    14     2    1
    10    14    16    1
    11    28    11    1
    12    35    13    1
    13    39    16    1
    14     2     1    1
    15    29    11    1
    16    33    13    1
    17    16    40    1
    18    16    41    1
    19    11    27    1
    20    11     7    1
    21    13     1    1
    22    13    34    1
    23    26    10    1
    24     1     3    1
    25     1    12    1
    26    25    10    1
    27     7     6    1
    28     7     3    2
    29    10     6    1
    30    10    24    1
    31     6     5    2
    32     3     4    1
    33    30    12    1
    34    12    31    1
    35    12    32    1
    36     5     4    1
    37     5     9    1
    38     4     8    1
    39    19     8    1
    40    23     9    1
    41    22     9    1
    42     9    21    1
    43     8    20    1
    44     8    18    1
