@<TRIPOS>MOLECULE
2,3,4,5,6,7
 44 44 0 0 0
SMALL
GASTEIGER

@<TRIPOS>ATOM
      1 SI         18.5993    5.3243   10.8421 Si      1  UNL1        0.0000
      2 N          18.3626    3.9310   11.8132 N.3     1  UNL1        0.0000
      3 C          17.2366    4.8805    9.5963 C.2     1  UNL1        0.0000
      4 C          15.8389    5.0331    9.8204 C.3     1  UNL1        0.0000
      5 C          15.1506    4.0436    9.0858 C.2     1  UNL1        0.0000
      6 C          16.1129    3.2380    8.4192 C.2     1  UNL1        0.0000
      7 C          17.3944    3.7552    8.7274 C.2     1  UNL1        0.0000
      8 C          15.1724    6.1942   10.5027 C.3     1  UNL1        0.0000
      9 C          13.6658    3.9557    8.8664 C.3     1  UNL1        0.0000
     10 C          15.7543    2.1364    7.4569 C.3     1  UNL1        0.0000
     11 C          18.7083    3.3082    8.1431 C.3     1  UNL1        0.0000
     12 C          18.3763    7.0114   11.7570 C.3     1  UNL1        0.0000
     13 C          20.2896    5.6368    9.9557 C.3     1  UNL1        0.0000
     14 C          19.3323    3.3229   12.7013 C.3     1  UNL1        0.0000
     15 C          20.2050    4.3614   13.4240 C.3     1  UNL1        0.0000
     16 C          18.5801    2.4941   13.7626 C.3     1  UNL1        0.0000
     17 C          20.2504    2.3740   11.9003 C.3     1  UNL1        0.0000
     18 H          14.7012    6.8464    9.7622 H       1  UNL1        0.0000
     19 H          15.8981    6.7825   11.0538 H       1  UNL1        0.0000
     20 H          14.3910    5.8615   11.1874 H       1  UNL1        0.0000
     21 H          13.3968    4.3921    7.9002 H       1  UNL1        0.0000
     22 H          13.1236    4.5008    9.6371 H       1  UNL1        0.0000
     23 H          13.3271    2.9192    8.8684 H       1  UNL1        0.0000
     24 H          15.1309    2.5243    6.6479 H       1  UNL1        0.0000
     25 H          15.1891    1.3454    7.9602 H       1  UNL1        0.0000
     26 H          16.6432    1.6941    7.0115 H       1  UNL1        0.0000
     27 H          19.2174    4.1563    7.6845 H       1  UNL1        0.0000
     28 H          18.5557    2.5562    7.3701 H       1  UNL1        0.0000
     29 H          19.3651    2.8926    8.9120 H       1  UNL1        0.0000
     30 H          19.3036    7.2905   12.2469 H       1  UNL1        0.0000
     31 H          17.6090    6.9760   12.5228 H       1  UNL1        0.0000
     32 H          18.1278    7.8099   11.0657 H       1  UNL1        0.0000
     33 H          20.9750    6.1463   10.6260 H       1  UNL1        0.0000
     34 H          20.1653    6.2721    9.0848 H       1  UNL1        0.0000
     35 H          20.7755    4.7246    9.6283 H       1  UNL1        0.0000
     36 H          19.5725    5.0903   13.9235 H       1  UNL1        0.0000
     37 H          20.8316    4.8847   12.7093 H       1  UNL1        0.0000
     38 H          20.8412    3.8778   14.1624 H       1  UNL1        0.0000
     39 H          18.1375    3.1562   14.5046 H       1  UNL1        0.0000
     40 H          19.2600    1.8146   14.2758 H       1  UNL1        0.0000
     41 H          17.7899    1.9252   13.2587 H       1  UNL1        0.0000
     42 H          19.6375    1.6382   11.3736 H       1  UNL1        0.0000
     43 H          20.9510    1.8598   12.5562 H       1  UNL1        0.0000
     44 H          20.8165    2.9480   11.1711 H       1  UNL1        0.0000
@<TRIPOS>BOND
     1    24    10    1
     2    26    10    1
     3    28    11    1
     4    10    25    1
     5    10     6    1
     6    27    11    1
     7    21     9    1
     8    11     7    1
     9    11    29    1
    10     6     7    1
    11     6     5    2
    12     7     3    2
    13     9    23    1
    14     9     5    1
    15     9    22    1
    16    34    13    1
    17     5     4    1
    18     3     4    1
    19     3     1    1
    20    35    13    1
    21    18     8    1
    22     4     8    1
    23    13    33    1
    24    13     1    1
    25     8    19    1
    26     8    20    1
    27     1    12    1
    28     1     2    1
    29    32    12    1
    30    44    17    1
    31    42    17    1
    32    12    30    1
    33    12    31    1
    34     2    14    1
    35    17    43    1
    36    17    14    1
    37    14    15    1
    38    14    16    1
    39    37    15    1
    40    41    16    1
    41    15    36    1
    42    15    38    1
    43    16    40    1
    44    16    39    1
