@<TRIPOS>MOLECULE
2,3,4,5,6,7
 44 44 0 0 0
SMALL
GASTEIGER

@<TRIPOS>ATOM
      1 SI          0.4905    2.1582    1.6428 Si      1  UNL1        0.0000
      2 N           1.6733    2.8153    2.7069 N.3     1  UNL1        0.0000
      3 C           1.7300    1.0521    0.7025 C.3     1  UNL1        0.0000
      4 C           2.3210   -0.1091    1.2984 C.2     1  UNL1        0.0000
      5 C           3.6277   -0.2841    0.7738 C.2     1  UNL1        0.0000
      6 C           3.8701    0.7742   -0.1545 C.2     1  UNL1        0.0000
      7 C           2.7104    1.5912   -0.1926 C.2     1  UNL1        0.0000
      8 C           1.6001   -1.1722    2.0818 C.3     1  UNL1        0.0000
      9 C           4.4628   -1.5263    0.9290 C.3     1  UNL1        0.0000
     10 C           5.0023    0.8347   -1.1441 C.3     1  UNL1        0.0000
     11 C           2.4730    2.6314   -1.2534 C.3     1  UNL1        0.0000
     12 C          -0.9674    1.1727    2.4339 C.3     1  UNL1        0.0000
     13 C          -0.4570    3.3881    0.4971 C.3     1  UNL1        0.0000
     14 C           1.4661    3.7882    3.7707 C.3     1  UNL1        0.0000
     15 C           0.4822    3.2826    4.8447 C.3     1  UNL1        0.0000
     16 C           0.8863    5.1170    3.2463 C.3     1  UNL1        0.0000
     17 C           2.8352    4.0597    4.4283 C.3     1  UNL1        0.0000
     18 H           1.2707   -1.9615    1.3995 H       1  UNL1        0.0000
     19 H           0.7188   -0.7767    2.5759 H       1  UNL1        0.0000
     20 H           2.2494   -1.6376    2.8239 H       1  UNL1        0.0000
     21 H           4.1034   -2.3018    0.2468 H       1  UNL1        0.0000
     22 H           4.4080   -1.9244    1.9420 H       1  UNL1        0.0000
     23 H           5.5086   -1.3376    0.6913 H       1  UNL1        0.0000
     24 H           4.6973    0.3668   -2.0843 H       1  UNL1        0.0000
     25 H           5.8793    0.3016   -0.7806 H       1  UNL1        0.0000
     26 H           5.2912    1.8625   -1.3640 H       1  UNL1        0.0000
     27 H           2.2141    2.1349   -2.1934 H       1  UNL1        0.0000
     28 H           3.3655    3.2294   -1.4396 H       1  UNL1        0.0000
     29 H           1.6503    3.2889   -0.9922 H       1  UNL1        0.0000
     30 H          -1.8007    1.8394    2.6334 H       1  UNL1        0.0000
     31 H          -0.6997    0.7058    3.3766 H       1  UNL1        0.0000
     32 H          -1.3324    0.3988    1.7668 H       1  UNL1        0.0000
     33 H          -0.7511    2.9169   -0.4350 H       1  UNL1        0.0000
     34 H           0.1219    4.2746    0.2582 H       1  UNL1        0.0000
     35 H          -1.3671    3.7233    0.9847 H       1  UNL1        0.0000
     36 H           0.8162    2.3464    5.2772 H       1  UNL1        0.0000
     37 H          -0.4950    3.1266    4.3981 H       1  UNL1        0.0000
     38 H           0.3868    4.0192    5.6396 H       1  UNL1        0.0000
     39 H           1.5223    5.5519    2.4838 H       1  UNL1        0.0000
     40 H           0.7854    5.8283    4.0633 H       1  UNL1        0.0000
     41 H          -0.0953    4.9412    2.8171 H       1  UNL1        0.0000
     42 H           3.2445    3.1317    4.8392 H       1  UNL1        0.0000
     43 H           2.7326    4.7853    5.2345 H       1  UNL1        0.0000
     44 H           3.5360    4.4540    3.6861 H       1  UNL1        0.0000
@<TRIPOS>BOND
     1    27    11    1
     2    24    10    1
     3    28    11    1
     4    26    10    1
     5    11    29    1
     6    11     7    1
     7    10    25    1
     8    10     6    1
     9    33    13    1
    10     7     6    2
    11     7     3    1
    12     6     5    1
    13    21     9    1
    14    34    13    1
    15    13    35    1
    16    13     1    1
    17    23     9    1
    18     3     4    1
    19     3     1    1
    20     5     9    1
    21     5     4    2
    22     9    22    1
    23     4     8    1
    24    18     8    1
    25     1    12    1
    26     1     2    1
    27    32    12    1
    28     8    19    1
    29     8    20    1
    30    12    30    1
    31    12    31    1
    32    39    16    1
    33     2    14    1
    34    41    16    1
    35    16    14    1
    36    16    40    1
    37    44    17    1
    38    14    17    1
    39    14    15    1
    40    37    15    1
    41    17    42    1
    42    17    43    1
    43    15    36    1
    44    15    38    1
