@<TRIPOS>MOLECULE
1,3,4,9,10,15
 44 46 0 0 0
SMALL
GASTEIGER

@<TRIPOS>ATOM
      1 N           1.4481    2.0354    4.3040 N.3     1  UNL1        0.0000
      2 SI         -0.1728    1.7329    4.8021 Si      1  UNL1        0.0000
      3 C           0.0305    0.6432    2.2156 C.3     1  UNL1        0.0000
      4 C           0.8415    1.3889    1.3031 C.ar    1  UNL1        0.0000
      5 C           0.8763    2.7638    0.9796 C.ar    1  UNL1        0.0000
      6 C           1.7973    3.2108    0.0653 C.ar    1  UNL1        0.0000
      7 C           2.7011    2.3357   -0.5610 C.ar    1  UNL1        0.0000
      8 C           2.7123    0.9933   -0.2643 C.ar    1  UNL1        0.0000
      9 C           1.8040    0.4959    0.6803 C.ar    1  UNL1        0.0000
     10 C           1.5944   -0.8131    1.2419 C.ar    1  UNL1        0.0000
     11 C           2.2362   -2.0455    1.0484 C.ar    1  UNL1        0.0000
     12 C           1.7886   -3.1480    1.7389 C.ar    1  UNL1        0.0000
     13 C           0.6990   -3.0600    2.6214 C.ar    1  UNL1        0.0000
     14 C           0.0460   -1.8738    2.8445 C.ar    1  UNL1        0.0000
     15 C           0.4803   -0.7127    2.1700 C.ar    1  UNL1        0.0000
     16 C          -1.0053    1.2090    3.1265 C.3     1  UNL1        0.0000
     17 C          -0.3171    0.2456    6.0028 C.3     1  UNL1        0.0000
     18 C          -1.1843    3.2042    5.4802 C.3     1  UNL1        0.0000
     19 C           2.5002    2.7836    4.9770 C.3     1  UNL1        0.0000
     20 C           2.0890    3.3753    6.3230 C.3     1  UNL1        0.0000
     21 C           2.9709    3.8982    4.0281 C.3     1  UNL1        0.0000
     22 H           0.1672    3.4438    1.4314 H       1  UNL1        0.0000
     23 H           1.8297    4.2595   -0.1905 H       1  UNL1        0.0000
     24 H           3.3980    2.7311   -1.2832 H       1  UNL1        0.0000
     25 H           3.4095    0.3267   -0.7522 H       1  UNL1        0.0000
     26 H           3.0600   -2.1259    0.3518 H       1  UNL1        0.0000
     27 H           2.2755   -4.1010    1.6016 H       1  UNL1        0.0000
     28 H           0.3743   -3.9520    3.1355 H       1  UNL1        0.0000
     29 H          -0.7998   -1.8258    3.5162 H       1  UNL1        0.0000
     30 H          -1.7828    0.4700    3.3162 H       1  UNL1        0.0000
     31 H          -1.4893    2.0617    2.6509 H       1  UNL1        0.0000
     32 H          -0.0037    0.5146    7.0070 H       1  UNL1        0.0000
     33 H           0.3152   -0.5788    5.6785 H       1  UNL1        0.0000
     34 H          -1.3374   -0.1186    6.0735 H       1  UNL1        0.0000
     35 H          -0.9769    3.3809    6.5288 H       1  UNL1        0.0000
     36 H          -2.2447    2.9943    5.3917 H       1  UNL1        0.0000
     37 H          -0.9867    4.1240    4.9400 H       1  UNL1        0.0000
     38 H           3.3530    2.0912    5.1615 H       1  UNL1        0.0000
     39 H           1.7238    2.5902    6.9783 H       1  UNL1        0.0000
     40 H           1.3061    4.1134    6.1831 H       1  UNL1        0.0000
     41 H           2.9455    3.8533    6.7916 H       1  UNL1        0.0000
     42 H           3.2382    3.4749    3.0542 H       1  UNL1        0.0000
     43 H           3.8367    4.4121    4.4379 H       1  UNL1        0.0000
     44 H           2.1648    4.6161    3.8885 H       1  UNL1        0.0000
@<TRIPOS>BOND
     1    24     7    1
     2    25     8    1
     3     7     8   ar
     4     7     6   ar
     5     8     9   ar
     6    23     6    1
     7     6     5   ar
     8    26    11    1
     9     9    10    1
    10     9     4   ar
    11     5     4   ar
    12     5    22    1
    13    11    10   ar
    14    11    12   ar
    15    10    15   ar
    16     4     3    1
    17    27    12    1
    18    12    13   ar
    19    15     3    1
    20    15    14   ar
    21     3    16    1
    22    13    14   ar
    23    13    28    1
    24    31    16    1
    25    14    29    1
    26    42    21    1
    27    16    30    1
    28    16     2    1
    29    44    21    1
    30    21    43    1
    31    21    19    1
    32     1     2    1
    33     1    19    1
    34     2    18    1
    35     2    17    1
    36    37    18    1
    37    19    38    1
    38    19    20    1
    39    36    18    1
    40    18    35    1
    41    33    17    1
    42    17    34    1
    43    17    32    1
    44    40    20    1
    45    20    41    1
    46    20    39    1
