@<TRIPOS>MOLECULE
1,14,15,16,17
 49 49 0 0 0
SMALL
GASTEIGER

@<TRIPOS>ATOM
      1 N           2.4855    2.6604    8.0054 N.3     1  UNL1        0.0000
      2 N           2.6199    2.0783   11.6054 N.3     1  UNL1        0.0000
      3 SI          1.1456    2.9230   12.0063 Si      1  UNL1        0.0000
      4 C           3.6922    2.4668    8.7755 C.3     1  UNL1        0.0000
      5 H           3.7943    3.2811    9.4931 H       1  UNL1        0.0000
      6 H           4.5662    2.4864    8.1006 H       1  UNL1        0.0000
      7 C           3.7184    1.1447    9.5653 C.3     1  UNL1        0.0000
      8 H           4.6762    1.0679   10.0815 H       1  UNL1        0.0000
      9 H           3.6395    0.2984    8.8813 H       1  UNL1        0.0000
     10 C           2.5592    1.0703   10.5632 C.3     1  UNL1        0.0000
     11 H           1.6266    1.2050   10.0039 H       1  UNL1        0.0000
     12 H           2.5464    0.0677   11.0155 H       1  UNL1        0.0000
     13 C           0.8052    4.1195   10.5916 C.3     1  UNL1        0.0000
     14 C           1.7643    5.0008    9.9854 C.2     1  UNL1        0.0000
     15 C           1.0856    5.8036    9.0308 C.2     1  UNL1        0.0000
     16 C          -0.2953    5.4655    9.0715 C.2     1  UNL1        0.0000
     17 C          -0.4708    4.4440   10.0284 C.2     1  UNL1        0.0000
     18 C           2.4360    1.7510    6.8728 C.3     1  UNL1        0.0000
     19 H           1.7375    2.1122    6.1119 H       1  UNL1        0.0000
     20 H           2.1062    0.7466    7.1818 H       1  UNL1        0.0000
     21 H           3.4297    1.6611    6.4110 H       1  UNL1        0.0000
     22 C           3.6571    1.8223   12.5797 C.3     1  UNL1        0.0000
     23 H           3.5899    2.5473   13.3836 H       1  UNL1        0.0000
     24 H           4.6471    1.9062   12.1245 H       1  UNL1        0.0000
     25 H           3.5659    0.8176   13.0097 H       1  UNL1        0.0000
     26 C           1.3985    3.9342   13.6068 C.3     1  UNL1        0.0000
     27 H           2.2653    4.5838   13.5579 H       1  UNL1        0.0000
     28 H           1.5126    3.2837   14.4668 H       1  UNL1        0.0000
     29 H           0.5346    4.5643   13.7891 H       1  UNL1        0.0000
     30 C          -0.2582    1.6566   12.3161 C.3     1  UNL1        0.0000
     31 H          -0.5792    1.1919   11.3876 H       1  UNL1        0.0000
     32 H          -1.1304    2.0961   12.7876 H       1  UNL1        0.0000
     33 H           0.0976    0.8648   12.9704 H       1  UNL1        0.0000
     34 C           3.1206    5.3336   10.5438 C.3     1  UNL1        0.0000
     35 H           3.4761    4.5457   11.2034 H       1  UNL1        0.0000
     36 H           3.0360    6.2502   11.1346 H       1  UNL1        0.0000
     37 H           3.8585    5.5173    9.7615 H       1  UNL1        0.0000
     38 C           1.6924    6.9107    8.2199 C.3     1  UNL1        0.0000
     39 H           1.3002    6.9059    7.2024 H       1  UNL1        0.0000
     40 H           2.7754    6.8049    8.1684 H       1  UNL1        0.0000
     41 H           1.4619    7.8799    8.6690 H       1  UNL1        0.0000
     42 C          -1.3869    6.1495    8.3010 C.3     1  UNL1        0.0000
     43 H          -2.1251    5.4312    7.9421 H       1  UNL1        0.0000
     44 H          -0.9802    6.6745    7.4392 H       1  UNL1        0.0000
     45 H          -1.8953    6.8786    8.9371 H       1  UNL1        0.0000
     46 C          -1.8006    3.9406   10.5099 C.3     1  UNL1        0.0000
     47 H          -1.8971    4.1258   11.5806 H       1  UNL1        0.0000
     48 H          -1.9195    2.8714   10.3361 H       1  UNL1        0.0000
     49 H          -2.6092    4.4608    9.9992 H       1  UNL1        0.0000
@<TRIPOS>BOND
     1    19    18    1
     2    21    18    1
     3    18    20    1
     4    18     1    1
     5    39    38    1
     6    44    42    1
     7    43    42    1
     8     1     4    1
     9     6     4    1
    10    40    38    1
    11    38    41    1
    12    38    15    1
    13    42    45    1
    14    42    16    1
    15     4     5    1
    16     4     7    1
    17     9     7    1
    18    15    16    1
    19    15    14    2
    20    16    17    2
    21     7     8    1
    22     7    10    1
    23    37    34    1
    24    14    34    1
    25    14    13    1
    26    49    46    1
    27    11    10    1
    28    17    46    1
    29    17    13    1
    30    48    46    1
    31    46    47    1
    32    34    36    1
    33    34    35    1
    34    10    12    1
    35    10     2    1
    36    13     3    1
    37    31    30    1
    38     2     3    1
    39     2    22    1
    40     3    30    1
    41     3    26    1
    42    24    22    1
    43    30    32    1
    44    30    33    1
    45    22    25    1
    46    22    23    1
    47    27    26    1
    48    26    29    1
    49    26    28    1
