@<TRIPOS>MOLECULE
3,4,5,6,7,15
 30 31 0 0 0
SMALL
GASTEIGER

@<TRIPOS>ATOM
      1 C           2.0299    4.8014   -3.8442 C.3     1  UNL1        0.0000
      2 C           2.5514    1.7130   -4.0936 C.3     1  UNL1        0.0000
      3 C           3.3283    3.1515   -1.4338 C.3     1  UNL1        0.0000
      4 C           3.8508    1.9577   -0.8710 C.3     1  UNL1        0.0000
      5 C           4.1066    2.1704    0.4972 C.2     1  UNL1        0.0000
      6 C           3.7171    3.4917    0.8127 C.2     1  UNL1        0.0000
      7 C           3.2421    4.0937   -0.3698 C.3     1  UNL1        0.0000
      8 C          -0.5824    2.8112   -2.1420 C.ar    1  UNL1        0.0000
      9 C          -1.0787    2.5873   -3.4347 C.ar    1  UNL1        0.0000
     10 C          -2.4360    2.5475   -3.6789 C.ar    1  UNL1        0.0000
     11 C          -3.3456    2.7362   -2.6507 C.ar    1  UNL1        0.0000
     12 C          -2.8757    2.9790   -1.3692 C.ar    1  UNL1        0.0000
     13 C          -1.5197    3.0198   -1.1092 C.ar    1  UNL1        0.0000
     14 SI          2.1115    3.1443   -2.8910 Si      1  UNL1        0.0000
     15 N           0.7573    2.8490   -1.8484 N.pl3   1  UNL1        0.0000
     16 H           1.9171    5.6430   -3.1679 H       1  UNL1        0.0000
     17 H           2.9266    4.9635   -4.4317 H       1  UNL1        0.0000
     18 H           1.1828    4.8102   -4.5219 H       1  UNL1        0.0000
     19 H           2.3050    0.7458   -3.6615 H       1  UNL1        0.0000
     20 H           3.6095    1.7132   -4.3329 H       1  UNL1        0.0000
     21 H           2.0096    1.8027   -5.0291 H       1  UNL1        0.0000
     22 H           4.1359    1.0794   -1.4402 H       1  UNL1        0.0000
     23 H           4.6456    1.4991    1.1558 H       1  UNL1        0.0000
     24 H           3.8938    3.9989    1.7550 H       1  UNL1        0.0000
     25 H           2.9989    5.1438   -0.4819 H       1  UNL1        0.0000
     26 H          -0.3729    2.4400   -4.2392 H       1  UNL1        0.0000
     27 H          -2.7901    2.3666   -4.6839 H       1  UNL1        0.0000
     28 H          -4.4063    2.7025   -2.8466 H       1  UNL1        0.0000
     29 H          -3.5769    3.1450   -0.5631 H       1  UNL1        0.0000
     30 H          -1.1580    3.2392   -0.1022 H       1  UNL1        0.0000
@<TRIPOS>BOND
     1    21     2    1
     2    27    10    1
     3    18     1    1
     4    17     1    1
     5    20     2    1
     6    26     9    1
     7     2    19    1
     8     2    14    1
     9     1    16    1
    10     1    14    1
    11    10     9   ar
    12    10    11   ar
    13     9     8   ar
    14    14    15    1
    15    14     3    1
    16    28    11    1
    17    11    12   ar
    18     8    15    1
    19     8    13   ar
    20    22     4    1
    21     3     4    1
    22     3     7    1
    23    12    13   ar
    24    12    29    1
    25    13    30    1
    26     4     5    1
    27    25     7    1
    28     7     6    1
    29     5     6    2
    30     5    23    1
    31     6    24    1
