@<TRIPOS>MOLECULE
4,5,6,7,15
 30 31 0 0 0
SMALL
GASTEIGER

@<TRIPOS>ATOM
      1 C          -1.5308    2.3558    3.4224 C.3     1  UNL1        0.0000
      2 C           1.4951    2.1344    4.2357 C.3     1  UNL1        0.0000
      3 C           0.5637    0.7828    1.5844 C.3     1  UNL1        0.0000
      4 C          -0.1757    0.6107    0.3797 C.2     1  UNL1        0.0000
      5 C           0.6473   -0.0196   -0.5751 C.2     1  UNL1        0.0000
      6 C           1.9058   -0.2496    0.0253 C.2     1  UNL1        0.0000
      7 C           1.8591    0.2573    1.3382 C.2     1  UNL1        0.0000
      8 C           0.5924    4.7724    1.5793 C.ar    1  UNL1        0.0000
      9 C           0.5585    5.5110    2.7712 C.ar    1  UNL1        0.0000
     10 C           0.4989    6.8894    2.7529 C.ar    1  UNL1        0.0000
     11 C           0.4627    7.5802    1.5523 C.ar    1  UNL1        0.0000
     12 C           0.4748    6.8681    0.3628 C.ar    1  UNL1        0.0000
     13 C           0.5368    5.4883    0.3654 C.ar    1  UNL1        0.0000
     14 SI          0.2625    2.2382    2.7664 Si      1  UNL1        0.0000
     15 N           0.6629    3.4027    1.5453 N.pl3   1  UNL1        0.0000
     16 H          -2.2537    2.2927    2.6151 H       1  UNL1        0.0000
     17 H          -1.6900    3.3005    3.9313 H       1  UNL1        0.0000
     18 H          -1.7463    1.5595    4.1260 H       1  UNL1        0.0000
     19 H           2.5141    2.3295    3.9091 H       1  UNL1        0.0000
     20 H           1.2534    2.8578    5.0071 H       1  UNL1        0.0000
     21 H           1.4733    1.1526    4.6968 H       1  UNL1        0.0000
     22 H          -1.2381    0.7920    0.2664 H       1  UNL1        0.0000
     23 H           0.3249   -0.3962   -1.5399 H       1  UNL1        0.0000
     24 H           2.7060   -0.8450   -0.3991 H       1  UNL1        0.0000
     25 H           2.6317    0.1405    2.0904 H       1  UNL1        0.0000
     26 H           0.5860    4.9766    3.7096 H       1  UNL1        0.0000
     27 H           0.4814    7.4330    3.6869 H       1  UNL1        0.0000
     28 H           0.4179    8.6584    1.5433 H       1  UNL1        0.0000
     29 H           0.4290    7.3965   -0.5795 H       1  UNL1        0.0000
     30 H           0.5194    4.9344   -0.5757 H       1  UNL1        0.0000
@<TRIPOS>BOND
     1    23     5    1
     2    29    12    1
     3    30    13    1
     4     5     6    1
     5     5     4    2
     6    24     6    1
     7     6     7    2
     8    22     4    1
     9    12    13   ar
    10    12    11   ar
    11    13     8   ar
    12     4     3    1
    13     7     3    1
    14     7    25    1
    15    28    11    1
    16    15     8    1
    17    15    14    1
    18    11    10   ar
    19     8     9   ar
    20     3    14    1
    21    16     1    1
    22    10     9   ar
    23    10    27    1
    24    14     1    1
    25    14     2    1
    26     9    26    1
    27     1    17    1
    28     1    18    1
    29    19     2    1
    30     2    21    1
    31     2    20    1
