@<TRIPOS>MOLECULE
2,3,4,5,6,7
 44 45 0 0 0
SMALL
GASTEIGER

@<TRIPOS>ATOM
      1 SI          3.6491    3.6677    3.8087 Si      1  UNL1        0.0000
      2 N           2.8738    4.4409    2.4788 N.3     1  UNL1        0.0000
      3 C           3.8929    1.5224    1.8497 C.3     1  UNL1        0.0000
      4 C           3.3975    1.9134    3.1326 C.3     1  UNL1        0.0000
      5 C           2.1833    1.2014    3.3106 C.3     1  UNL1        0.0000
      6 C           1.9110    0.3722    2.2057 C.2     1  UNL1        0.0000
      7 C           2.9835    0.5419    1.2800 C.2     1  UNL1        0.0000
      8 C           3.2775   -0.0367    0.0305 C.2     1  UNL1        0.0000
      9 C           4.3945    0.3789   -0.6528 C.2     1  UNL1        0.0000
     10 C           5.2400    1.3760   -0.1336 C.2     1  UNL1        0.0000
     11 C           5.0007    1.9514    1.0926 C.2     1  UNL1        0.0000
     12 C           0.8143   -0.6536    2.1088 C.3     1  UNL1        0.0000
     13 C           1.3133   -2.0316    2.5570 C.3     1  UNL1        0.0000
     14 C           2.7695    3.7707    5.5205 C.3     1  UNL1        0.0000
     15 C           5.4884    4.1266    4.1241 C.3     1  UNL1        0.0000
     16 C           2.4166    5.8138    2.4023 C.3     1  UNL1        0.0000
     17 C           3.5032    6.7965    2.8640 C.3     1  UNL1        0.0000
     18 C           2.0602    6.1231    0.9326 C.3     1  UNL1        0.0000
     19 C           1.1521    6.0064    3.2640 C.3     1  UNL1        0.0000
     20 H           1.5844    1.2274    4.2174 H       1  UNL1        0.0000
     21 H           2.6387   -0.8097   -0.3800 H       1  UNL1        0.0000
     22 H           4.6350   -0.0629   -1.6094 H       1  UNL1        0.0000
     23 H           6.1003    1.6804   -0.7135 H       1  UNL1        0.0000
     24 H           5.6852    2.6846    1.5033 H       1  UNL1        0.0000
     25 H          -0.0277   -0.3555    2.7419 H       1  UNL1        0.0000
     26 H           0.4537   -0.7236    1.0763 H       1  UNL1        0.0000
     27 H           0.5208   -2.7735    2.4822 H       1  UNL1        0.0000
     28 H           2.1483   -2.3485    1.9365 H       1  UNL1        0.0000
     29 H           1.6543   -1.9883    3.5888 H       1  UNL1        0.0000
     30 H           1.6991    3.6029    5.4290 H       1  UNL1        0.0000
     31 H           3.1645    3.0338    6.2119 H       1  UNL1        0.0000
     32 H           2.9139    4.7458    5.9747 H       1  UNL1        0.0000
     33 H           5.5710    4.9219    4.8573 H       1  UNL1        0.0000
     34 H           6.0460    3.2759    4.5012 H       1  UNL1        0.0000
     35 H           5.9769    4.4679    3.2174 H       1  UNL1        0.0000
     36 H           3.7496    6.6149    3.9057 H       1  UNL1        0.0000
     37 H           3.1643    7.8242    2.7563 H       1  UNL1        0.0000
     38 H           4.4014    6.6536    2.2690 H       1  UNL1        0.0000
     39 H           2.9060    5.8600    0.2921 H       1  UNL1        0.0000
     40 H           1.8424    7.1830    0.8089 H       1  UNL1        0.0000
     41 H           1.1799    5.5400    0.6331 H       1  UNL1        0.0000
     42 H           0.4314    5.2200    3.0225 H       1  UNL1        0.0000
     43 H           0.7021    6.9798    3.0801 H       1  UNL1        0.0000
     44 H           1.4084    5.9342    4.3172 H       1  UNL1        0.0000
@<TRIPOS>BOND
     1    22     9    1
     2    23    10    1
     3     9    10    1
     4     9     8    2
     5    21     8    1
     6    10    11    2
     7     8     7    1
     8    39    18    1
     9    41    18    1
    10    40    18    1
    11    18    16    1
    12    26    12    1
    13    11    24    1
    14    11     3    1
    15     7     3    1
    16     7     6    2
    17     3     4    1
    18    28    13    1
    19    12     6    1
    20    12    13    1
    21    12    25    1
    22     6     5    1
    23    38    17    1
    24    16     2    1
    25    16    17    1
    26    16    19    1
    27     2     1    1
    28    27    13    1
    29    13    29    1
    30    37    17    1
    31    17    36    1
    32    42    19    1
    33    43    19    1
    34     4     5    1
    35     4     1    1
    36    35    15    1
    37    19    44    1
    38     5    20    1
    39     1    15    1
    40     1    14    1
    41    15    34    1
    42    15    33    1
    43    30    14    1
    44    14    32    1
    45    14    31    1
