@<TRIPOS>MOLECULE
2,3,4,5,6,7
 44 45 0 0 0
SMALL
GASTEIGER

@<TRIPOS>ATOM
      1 SI          3.5763    9.7051    3.9281 Si      1  UNL1        0.0000
      2 N           2.8647   10.3907    2.5085 N.3     1  UNL1        0.0000
      3 C           3.3947    7.9384    3.2303 C.3     1  UNL1        0.0000
      4 C           2.2012    7.1908    3.4357 C.3     1  UNL1        0.0000
      5 C           1.8658    6.4400    2.2882 C.2     1  UNL1        0.0000
      6 C           2.8963    6.6664    1.3183 C.2     1  UNL1        0.0000
      7 C           3.8205    7.6292    1.8923 C.3     1  UNL1        0.0000
      8 C           4.8410    8.1658    1.0815 C.2     1  UNL1        0.0000
      9 C           4.9813    7.7091   -0.2076 C.2     1  UNL1        0.0000
     10 C           4.1312    6.7190   -0.7335 C.2     1  UNL1        0.0000
     11 C           3.0981    6.1980    0.0049 C.2     1  UNL1        0.0000
     12 C           0.6989    5.5008    2.1401 C.3     1  UNL1        0.0000
     13 C           1.1147    4.0531    2.4215 C.3     1  UNL1        0.0000
     14 C           2.5082    9.7733    5.5227 C.3     1  UNL1        0.0000
     15 C           5.3657   10.2359    4.3518 C.3     1  UNL1        0.0000
     16 C           2.4237   11.7499    2.2573 C.3     1  UNL1        0.0000
     17 C           3.6258   12.7059    2.2414 C.3     1  UNL1        0.0000
     18 C           1.7432   11.7627    0.8697 C.3     1  UNL1        0.0000
     19 C           1.3982   12.2054    3.3096 C.3     1  UNL1        0.0000
     20 H           1.6403    7.1672    4.3659 H       1  UNL1        0.0000
     21 H           5.5275    8.8962    1.4919 H       1  UNL1        0.0000
     22 H           5.7658    8.1052   -0.8361 H       1  UNL1        0.0000
     23 H           4.2954    6.3749   -1.7437 H       1  UNL1        0.0000
     24 H           2.4448    5.4443   -0.4161 H       1  UNL1        0.0000
     25 H           0.2967    5.5693    1.1212 H       1  UNL1        0.0000
     26 H          -0.0939    5.7922    2.8383 H       1  UNL1        0.0000
     27 H           0.2669    3.3816    2.3068 H       1  UNL1        0.0000
     28 H           1.4954    3.9634    3.4364 H       1  UNL1        0.0000
     29 H           1.8995    3.7451    1.7343 H       1  UNL1        0.0000
     30 H           1.4537    9.6567    5.2786 H       1  UNL1        0.0000
     31 H           2.6262   10.7145    6.0492 H       1  UNL1        0.0000
     32 H           2.7832    8.9847    6.2157 H       1  UNL1        0.0000
     33 H           5.3679   11.1210    4.9786 H       1  UNL1        0.0000
     34 H           5.8809    9.4512    4.8944 H       1  UNL1        0.0000
     35 H           5.9447   10.4605    3.4628 H       1  UNL1        0.0000
     36 H           4.3485   12.3695    1.5009 H       1  UNL1        0.0000
     37 H           4.1057   12.7081    3.2158 H       1  UNL1        0.0000
     38 H           3.3111   13.7179    1.9996 H       1  UNL1        0.0000
     39 H           2.4238   11.3374    0.1186 H       1  UNL1        0.0000
     40 H           1.4988   12.7833    0.5755 H       1  UNL1        0.0000
     41 H           0.8066   11.1813    0.9032 H       1  UNL1        0.0000
     42 H           0.6025   11.4614    3.3881 H       1  UNL1        0.0000
     43 H           0.9647   13.1636    3.0323 H       1  UNL1        0.0000
     44 H           1.8798   12.3070    4.2781 H       1  UNL1        0.0000
@<TRIPOS>BOND
     1    23    10    1
     2    22     9    1
     3    10     9    1
     4    10    11    2
     5    24    11    1
     6     9     8    2
     7    11     6    1
     8    39    18    1
     9    40    18    1
    10    18    41    1
    11    18    16    1
    12     8    21    1
    13     8     7    1
    14    25    12    1
    15     6     7    1
    16     6     5    2
    17    36    17    1
    18    29    13    1
    19     7     3    1
    20    38    17    1
    21    12     5    1
    22    12    13    1
    23    12    26    1
    24    17    16    1
    25    17    37    1
    26    16     2    1
    27    16    19    1
    28     5     4    1
    29    27    13    1
    30    13    28    1
    31     2     1    1
    32    43    19    1
    33     3     4    1
    34     3     1    1
    35    19    42    1
    36    19    44    1
    37     4    20    1
    38    35    15    1
    39     1    15    1
    40     1    14    1
    41    15    34    1
    42    15    33    1
    43    30    14    1
    44    14    31    1
    45    14    32    1
