@<TRIPOS>MOLECULE
2,4,5,7,9,11
 50 52 0 0 0
SMALL
GASTEIGER

@<TRIPOS>ATOM
      1 SI          8.6352    4.8392   13.6433 Si      1  UNL1        0.0000
      2 N           7.3404    4.7218   14.7810 N.3     1  UNL1        0.0000
      3 O           5.1764    3.7445   13.7665 O.3     1  UNL1        0.0000
      4 C           7.8579    6.4731   13.0473 C.3     1  UNL1        0.0000
      5 C           7.8550    7.6195   13.8797 C.3     1  UNL1        0.0000
      6 H           8.6811    7.9456   14.4995 H       1  UNL1        0.0000
      7 C           6.6414    8.3179   13.7020 C.2     1  UNL1        0.0000
      8 H           6.3914    9.2811   14.1324 H       1  UNL1        0.0000
      9 C           5.8679    7.6061   12.7570 C.2     1  UNL1        0.0000
     10 H           4.9336    7.9397   12.3213 H       1  UNL1        0.0000
     11 C           6.6034    6.4655   12.3730 C.3     1  UNL1        0.0000
     12 H           6.3250    5.7775   11.5856 H       1  UNL1        0.0000
     13 C          10.3435    5.0413   14.4714 C.3     1  UNL1        0.0000
     14 H          10.7572    4.0820   14.7637 H       1  UNL1        0.0000
     15 H          10.2678    5.6567   15.3627 H       1  UNL1        0.0000
     16 H          11.0494    5.5110   13.7955 H       1  UNL1        0.0000
     17 C           8.7194    3.5372   12.2422 C.3     1  UNL1        0.0000
     18 H           9.0322    2.5711   12.6250 H       1  UNL1        0.0000
     19 H           7.7569    3.4130   11.7559 H       1  UNL1        0.0000
     20 H           9.4379    3.8345   11.4862 H       1  UNL1        0.0000
     21 C           6.7649    3.6278   15.4945 C.3     1  UNL1        0.0000
     22 H           6.0731    4.0495   16.2553 H       1  UNL1        0.0000
     23 C           5.9127    2.7931   14.5180 C.3     1  UNL1        0.0000
     24 H           6.5865    2.2509   13.8307 H       1  UNL1        0.0000
     25 C           5.0852    1.7867   15.3166 C.3     1  UNL1        0.0000
     26 H           4.4355    2.3301   16.0066 H       1  UNL1        0.0000
     27 H           4.4560    1.1889   14.6539 H       1  UNL1        0.0000
     28 C           6.0361    0.8666   16.0841 C.3     1  UNL1        0.0000
     29 H           5.4555    0.1601   16.6797 H       1  UNL1        0.0000
     30 H           6.6269    0.2907   15.3673 H       1  UNL1        0.0000
     31 C           6.9781    1.6527   16.9953 C.3     1  UNL1        0.0000
     32 H           7.6729    0.9649   17.4807 H       1  UNL1        0.0000
     33 H           6.3965    2.1472   17.7759 H       1  UNL1        0.0000
     34 C           7.7547    2.7085   16.2118 C.3     1  UNL1        0.0000
     35 H           8.3728    3.3087   16.8808 H       1  UNL1        0.0000
     36 H           8.4060    2.2405   15.4698 H       1  UNL1        0.0000
     37 C           4.3267    3.1724   12.7724 C.3     1  UNL1        0.0000
     38 H           3.3662    2.8952   13.2297 H       1  UNL1        0.0000
     39 H           4.8016    2.2693   12.3636 H       1  UNL1        0.0000
     40 C           4.1021    4.1734   11.6719 C.ar    1  UNL1        0.0000
     41 C           3.2898    5.2799   11.8916 C.ar    1  UNL1        0.0000
     42 H           2.8108    5.4049   12.8512 H       1  UNL1        0.0000
     43 C           3.1010    6.2149   10.8882 C.ar    1  UNL1        0.0000
     44 H           2.4646    7.0695   11.0652 H       1  UNL1        0.0000
     45 C           3.7171    6.0537    9.6583 C.ar    1  UNL1        0.0000
     46 H           3.5688    6.7835    8.8763 H       1  UNL1        0.0000
     47 C           4.5225    4.9506    9.4314 C.ar    1  UNL1        0.0000
     48 H           5.0027    4.8179    8.4734 H       1  UNL1        0.0000
     49 C           4.7150    4.0157   10.4345 C.ar    1  UNL1        0.0000
     50 H           5.3431    3.1549   10.2510 H       1  UNL1        0.0000
@<TRIPOS>BOND
     1    48    47    1
     2    46    45    1
     3    47    45   ar
     4    47    49   ar
     5    45    43   ar
     6    50    49    1
     7    49    40   ar
     8    43    44    1
     9    43    41   ar
    10    20    17    1
    11    12    11    1
    12    40    41   ar
    13    40    37    1
    14    19    17    1
    15    41    42    1
    16    17    18    1
    17    17     1    1
    18    10     9    1
    19    39    37    1
    20    11     9    1
    21    11     4    1
    22     9     7    2
    23    37    38    1
    24    37     3    1
    25     4     1    1
    26     4     5    1
    27     1    13    1
    28     1     2    1
    29     7     5    1
    30     7     8    1
    31     3    23    1
    32    16    13    1
    33    24    23    1
    34     5     6    1
    35    13    14    1
    36    13    15    1
    37    23    25    1
    38    23    21    1
    39    27    25    1
    40     2    21    1
    41    25    26    1
    42    25    28    1
    43    30    28    1
    44    36    34    1
    45    21    34    1
    46    21    22    1
    47    28    29    1
    48    28    31    1
    49    34    35    1
    50    34    31    1
    51    31    32    1
    52    31    33    1
