@<TRIPOS>MOLECULE
2,10,11,12,13
 44 44 0 0 0
SMALL
GASTEIGER

@<TRIPOS>ATOM
      1 SI          4.4957    5.9936    4.3534 Si      1  UNL1        0.0000
      2 N           3.6090    6.4932    2.9405 N.3     1  UNL1        0.0000
      3 C           1.7907    6.5838    1.2889 C.3     1  UNL1        0.0000
      4 C           3.1890    4.5345    1.5287 C.3     1  UNL1        0.0000
      5 C           1.5706    5.1807    3.3358 C.3     1  UNL1        0.0000
      6 C           2.5653    5.7154    2.2944 C.3     1  UNL1        0.0000
      7 C           5.1292    4.1837    4.4888 C.3     1  UNL1        0.0000
      8 C           3.5613    6.2727    6.0087 C.3     1  UNL1        0.0000
      9 C           5.8676    7.2559    3.9935 C.3     1  UNL1        0.0000
     10 C           5.5879    8.6529    4.1096 C.2     1  UNL1        0.0000
     11 C           6.2978    9.3447    3.0970 C.2     1  UNL1        0.0000
     12 C           7.0072    8.3798    2.3274 C.2     1  UNL1        0.0000
     13 C           6.7452    7.1045    2.8775 C.2     1  UNL1        0.0000
     14 C           4.8876    9.2796    5.2820 C.3     1  UNL1        0.0000
     15 C           6.4744   10.8319    2.9811 C.3     1  UNL1        0.0000
     16 C           7.9614    8.6868    1.2095 C.3     1  UNL1        0.0000
     17 C           7.3563    5.8151    2.4077 C.3     1  UNL1        0.0000
     18 H           2.4560    6.9104    0.4864 H       1  UNL1        0.0000
     19 H           0.9797    6.0054    0.8497 H       1  UNL1        0.0000
     20 H           1.3646    7.4520    1.7908 H       1  UNL1        0.0000
     21 H           3.6352    3.8282    2.2227 H       1  UNL1        0.0000
     22 H           2.4308    4.0180    0.9443 H       1  UNL1        0.0000
     23 H           3.9610    4.9072    0.8537 H       1  UNL1        0.0000
     24 H           1.1676    6.0059    3.9180 H       1  UNL1        0.0000
     25 H           0.7514    4.6612    2.8445 H       1  UNL1        0.0000
     26 H           2.0653    4.4898    4.0117 H       1  UNL1        0.0000
     27 H           4.3156    3.5230    4.7725 H       1  UNL1        0.0000
     28 H           5.5517    3.8071    3.5641 H       1  UNL1        0.0000
     29 H           5.8890    4.1018    5.2600 H       1  UNL1        0.0000
     30 H           2.8173    7.0587    5.9380 H       1  UNL1        0.0000
     31 H           3.0489    5.3655    6.3105 H       1  UNL1        0.0000
     32 H           4.2483    6.5345    6.8058 H       1  UNL1        0.0000
     33 H           4.9861   10.3632    5.2619 H       1  UNL1        0.0000
     34 H           3.8289    9.0238    5.3079 H       1  UNL1        0.0000
     35 H           5.3388    8.9204    6.2078 H       1  UNL1        0.0000
     36 H           7.3289   11.1519    3.5835 H       1  UNL1        0.0000
     37 H           6.6676   11.1257    1.9499 H       1  UNL1        0.0000
     38 H           5.5948   11.3702    3.3312 H       1  UNL1        0.0000
     39 H           8.9505    8.9311    1.6072 H       1  UNL1        0.0000
     40 H           8.0607    7.8348    0.5376 H       1  UNL1        0.0000
     41 H           7.6148    9.5390    0.6234 H       1  UNL1        0.0000
     42 H           7.4636    5.1269    3.2436 H       1  UNL1        0.0000
     43 H           6.7422    5.3373    1.6376 H       1  UNL1        0.0000
     44 H           8.3453    5.9950    1.9858 H       1  UNL1        0.0000
@<TRIPOS>BOND
     1    18     3    1
     2    40    16    1
     3    41    16    1
     4    19     3    1
     5    23     4    1
     6    22     4    1
     7    16    39    1
     8    16    12    1
     9     3    20    1
    10     3     6    1
    11     4    21    1
    12     4     6    1
    13    43    17    1
    14    37    15    1
    15    44    17    1
    16     6     2    1
    17     6     5    1
    18    12    13    2
    19    12    11    1
    20    17    13    1
    21    17    42    1
    22    25     5    1
    23    13     9    1
    24     2     1    1
    25    15    11    1
    26    15    38    1
    27    15    36    1
    28    11    10    2
    29     5    24    1
    30     5    26    1
    31    28     7    1
    32     9    10    1
    33     9     1    1
    34    10    14    1
    35     1     7    1
    36     1     8    1
    37     7    27    1
    38     7    29    1
    39    33    14    1
    40    14    34    1
    41    14    35    1
    42    30     8    1
    43     8    31    1
    44     8    32    1
