@<TRIPOS>MOLECULE
3,4,5,6,7,8
 51 52 0 0 0
SMALL
GASTEIGER

@<TRIPOS>ATOM
      1 SI          3.4677    1.3529    0.4128 Si      1  UNL1        0.0000
      2 F          -2.3204    0.7633    3.1965 F       1  UNL1        0.0000
      3 N           3.1006    3.0581    0.4243 N.3     1  UNL1        0.0000
      4 C           4.0650    1.4893    2.2173 C.3     1  UNL1        0.0000
      5 C           3.1194    2.0020    3.1651 C.3     1  UNL1        0.0000
      6 C           3.8041    2.7934    4.1254 C.2     1  UNL1        0.0000
      7 C           5.1714    2.8255    3.7502 C.2     1  UNL1        0.0000
      8 C           5.3326    2.0277    2.5840 C.3     1  UNL1        0.0000
      9 C           3.2209    3.3441    5.3923 C.3     1  UNL1        0.0000
     10 H           2.1569    3.1185    5.4469 H       1  UNL1        0.0000
     11 H           3.3463    4.4263    5.4535 H       1  UNL1        0.0000
     12 H           3.7167    2.8968    6.2561 H       1  UNL1        0.0000
     13 C           6.2777    3.4965    4.5081 C.3     1  UNL1        0.0000
     14 H           7.0127    3.9190    3.8213 H       1  UNL1        0.0000
     15 H           6.7888    2.7768    5.1527 H       1  UNL1        0.0000
     16 H           5.8857    4.2962    5.1355 H       1  UNL1        0.0000
     17 C           6.6578    1.6852    1.9705 C.3     1  UNL1        0.0000
     18 H           6.5665    0.7999    1.3474 H       1  UNL1        0.0000
     19 H           7.3881    1.4840    2.7554 H       1  UNL1        0.0000
     20 H           7.0409    2.5061    1.3601 H       1  UNL1        0.0000
     21 C           4.8371    0.7777   -0.7984 C.3     1  UNL1        0.0000
     22 H           4.4256    0.6322   -1.7921 H       1  UNL1        0.0000
     23 H           5.2572   -0.1741   -0.4896 H       1  UNL1        0.0000
     24 H           5.6442    1.4997   -0.8735 H       1  UNL1        0.0000
     25 C           1.9942    0.1538    0.1776 C.3     1  UNL1        0.0000
     26 H           1.8641   -0.0900   -0.8711 H       1  UNL1        0.0000
     27 H           1.0607    0.5675    0.5420 H       1  UNL1        0.0000
     28 H           2.1707   -0.7776    0.7039 H       1  UNL1        0.0000
     29 C           2.6326    3.8404   -0.7069 C.3     1  UNL1        0.0000
     30 C           2.2987    5.2709   -0.2523 C.3     1  UNL1        0.0000
     31 H           1.8987    5.8418   -1.0885 H       1  UNL1        0.0000
     32 H           3.2004    5.7779    0.1073 H       1  UNL1        0.0000
     33 H           1.5485    5.2488    0.5421 H       1  UNL1        0.0000
     34 C           1.3612    3.2083   -1.2922 C.3     1  UNL1        0.0000
     35 H           0.9529    3.8399   -2.0771 H       1  UNL1        0.0000
     36 H           0.6165    3.0895   -0.5079 H       1  UNL1        0.0000
     37 H           1.5844    2.2314   -1.7104 H       1  UNL1        0.0000
     38 C           3.7222    3.9166   -1.7896 C.3     1  UNL1        0.0000
     39 H           3.8783    2.9400   -2.2376 H       1  UNL1        0.0000
     40 H           4.6576    4.2526   -1.3422 H       1  UNL1        0.0000
     41 H           3.4314    4.6174   -2.5685 H       1  UNL1        0.0000
     42 C           1.6865    1.6798    3.1820 C.ar    1  UNL1        0.0000
     43 C           0.7326    2.6856    3.0216 C.ar    1  UNL1        0.0000
     44 H           1.0590    3.7127    2.8854 H       1  UNL1        0.0000
     45 C          -0.6168    2.3825    3.0259 C.ar    1  UNL1        0.0000
     46 H          -1.3664    3.1477    2.8981 H       1  UNL1        0.0000
     47 C          -1.0035    1.0648    3.1970 C.ar    1  UNL1        0.0000
     48 C          -0.0818    0.0476    3.3661 C.ar    1  UNL1        0.0000
     49 H          -0.4220   -0.9669    3.5010 H       1  UNL1        0.0000
     50 C           1.2640    0.3631    3.3570 C.ar    1  UNL1        0.0000
     51 H           2.0026   -0.4131    3.4891 H       1  UNL1        0.0000
@<TRIPOS>BOND
     1    41    38    1
     2    39    38    1
     3    35    34    1
     4    22    21    1
     5    38    40    1
     6    38    29    1
     7    37    34    1
     8    34    29    1
     9    34    36    1
    10    31    30    1
    11    24    21    1
    12    26    25    1
    13    21    23    1
    14    21     1    1
    15    29    30    1
    16    29     3    1
    17    30    32    1
    18    30    33    1
    19    25     1    1
    20    25    27    1
    21    25    28    1
    22     1     3    1
    23     1     4    1
    24    18    17    1
    25    20    17    1
    26    17     8    1
    27    17    19    1
    28     4     8    1
    29     4     5    1
    30     8     7    1
    31    44    43    1
    32    46    45    1
    33    43    45   ar
    34    43    42   ar
    35    45    47   ar
    36     5    42    1
    37     5     6    1
    38    42    50   ar
    39     2    47    1
    40    47    48   ar
    41    50    48   ar
    42    50    51    1
    43    48    49    1
    44     7     6    2
    45     7    13    1
    46    14    13    1
    47     6     9    1
    48    13    16    1
    49    13    15    1
    50     9    10    1
    51     9    11    1
    52     9    12    1
