@<TRIPOS>MOLECULE
4,5,6,7,8,9
 33 34 0 0 0
SMALL
GASTEIGER

@<TRIPOS>ATOM
      1 SI          0.6506    4.7199    8.1772 Si      1  UNL1        0.0000
      2 F          -2.3086    4.0571    5.5620 F       1  UNL1        0.0000
      3 F           2.2790    2.5025    3.1341 F       1  UNL1        0.0000
      4 N           0.4385    3.0036    7.9325 N.3     1  UNL1        0.0000
      5 C           2.0444    4.2752    9.4012 C.3     1  UNL1        0.0000
      6 C           1.7574    3.6779   10.6582 C.2     1  UNL1        0.0000
      7 C           2.7730    2.7465   10.9656 C.2     1  UNL1        0.0000
      8 C           3.6896    2.7344    9.8916 C.2     1  UNL1        0.0000
      9 C           3.2331    3.6553    8.9228 C.2     1  UNL1        0.0000
     10 C           1.2801    5.6894    6.6549 C.3     1  UNL1        0.0000
     11 C          -0.8823    5.5445    8.9604 C.3     1  UNL1        0.0000
     12 C          -0.5551    2.3889    7.0774 C.3     1  UNL1        0.0000
     13 C          -0.3044    2.8045    5.6500 C.ar    1  UNL1        0.0000
     14 C          -1.1717    3.6415    4.9594 C.ar    1  UNL1        0.0000
     15 C          -0.9156    4.0814    3.6723 C.ar    1  UNL1        0.0000
     16 C           0.2536    3.6917    3.0463 C.ar    1  UNL1        0.0000
     17 C           1.1321    2.8714    3.7353 C.ar    1  UNL1        0.0000
     18 C           0.8734    2.4245    5.0171 C.ar    1  UNL1        0.0000
     19 H           0.9505    3.9684   11.3215 H       1  UNL1        0.0000
     20 H           2.8885    2.2177   11.9049 H       1  UNL1        0.0000
     21 H           4.6323    2.1988    9.8657 H       1  UNL1        0.0000
     22 H           3.7655    3.9332    8.0194 H       1  UNL1        0.0000
     23 H           0.4620    5.9233    5.9820 H       1  UNL1        0.0000
     24 H           1.7349    6.6272    6.9550 H       1  UNL1        0.0000
     25 H           2.0170    5.1218    6.0936 H       1  UNL1        0.0000
     26 H          -0.6449    6.5209    9.3690 H       1  UNL1        0.0000
     27 H          -1.2954    4.9333    9.7590 H       1  UNL1        0.0000
     28 H          -1.6578    5.6817    8.2130 H       1  UNL1        0.0000
     29 H          -1.5645    2.6977    7.3852 H       1  UNL1        0.0000
     30 H          -0.4817    1.2915    7.1587 H       1  UNL1        0.0000
     31 H          -1.6265    4.7242    3.1781 H       1  UNL1        0.0000
     32 H           0.4889    4.0153    2.0455 H       1  UNL1        0.0000
     33 H           1.5822    1.7880    5.5312 H       1  UNL1        0.0000
@<TRIPOS>BOND
     1    32    16    1
     2    16    15   ar
     3    16    17   ar
     4     3    17    1
     5    31    15    1
     6    15    14   ar
     7    17    18   ar
     8    14     2    1
     9    14    13   ar
    10    18    33    1
    11    18    13   ar
    12    13    12    1
    13    23    10    1
    14    25    10    1
    15    10    24    1
    16    10     1    1
    17    12    30    1
    18    12    29    1
    19    12     4    1
    20     4     1    1
    21    22     9    1
    22     1    11    1
    23     1     5    1
    24    28    11    1
    25     9     5    1
    26     9     8    2
    27    11    26    1
    28    11    27    1
    29     5     6    1
    30    21     8    1
    31     8     7    1
    32     6     7    2
    33     6    19    1
    34     7    20    1
