@<TRIPOS>MOLECULE
2,3,4,5,18,19
 29 29 0 0 0
SMALL
GASTEIGER

@<TRIPOS>ATOM
      1 SI          1.4861    9.0742   -1.8111 Si      1  UNL1        0.0000
      2 N           0.8751    9.0742   -0.1800 N.3     1  UNL1        0.0000
      3 C           3.2427    9.0743   -1.0677 C.3     1  UNL1        0.0000
      4 C           3.7278    7.9358   -0.3668 C.3     1  UNL1        0.0000
      5 C           4.5323    8.3687    0.7095 C.2     1  UNL1        0.0000
      6 C           1.1450    7.4989   -2.8416 C.3     1  UNL1        0.0000
      7 C          -0.4884    9.0743    0.3050 C.3     1  UNL1        0.0000
      8 C          -1.2218    7.8091   -0.1484 C.3     1  UNL1        0.0000
      9 H           3.5951    6.9050   -0.6773 H       1  UNL1        0.0000
     10 H           5.1287    7.7331    1.3541 H       1  UNL1        0.0000
     11 H           1.1627    6.6072   -2.2219 H       1  UNL1        0.0000
     12 H           1.8923    7.3826   -3.6191 H       1  UNL1        0.0000
     13 H           0.1767    7.5477   -3.3279 H       1  UNL1        0.0000
     14 H          -0.4541    9.0743    1.4116 H       1  UNL1        0.0000
     15 H          -1.3246    7.8093   -1.2309 H       1  UNL1        0.0000
     16 H          -0.6481    6.9341    0.1556 H       1  UNL1        0.0000
     17 H          -2.2089    7.7605    0.3039 H       1  UNL1        0.0000
     18 C           3.7277   10.2127   -0.3668 C.3     1  UNL1        0.0000
     19 C           4.5322    9.7799    0.7096 C.2     1  UNL1        0.0000
     20 H           3.5949   11.2436   -0.6772 H       1  UNL1        0.0000
     21 H           5.1285   10.4155    1.3542 H       1  UNL1        0.0000
     22 C           1.1449   10.6493   -2.8416 C.3     1  UNL1        0.0000
     23 H           1.1611   11.5411   -2.2218 H       1  UNL1        0.0000
     24 H           1.8931   10.7666   -3.6183 H       1  UNL1        0.0000
     25 H           0.1771   10.6000   -3.3293 H       1  UNL1        0.0000
     26 C          -1.2216   10.3397   -0.1484 C.3     1  UNL1        0.0000
     27 H          -1.3243   10.3395   -1.2309 H       1  UNL1        0.0000
     28 H          -0.6478   11.2146    0.1557 H       1  UNL1        0.0000
     29 H          -2.2087   10.3884    0.3039 H       1  UNL1        0.0000
@<TRIPOS>BOND
     1    12     6    1
     2    24    22    1
     3    25    22    1
     4    13     6    1
     5     6    11    1
     6     6     1    1
     7    22    23    1
     8    22     1    1
     9     1     3    1
    10     1     2    1
    11    27    26    1
    12    15     8    1
    13     3     4    1
    14     3    18    1
    15     9     4    1
    16    20    18    1
    17     4     5    1
    18    18    19    1
    19     2     7    1
    20     8    16    1
    21     8    17    1
    22     8     7    1
    23    26    28    1
    24    26    29    1
    25    26     7    1
    26     7    14    1
    27     5    19    2
    28     5    10    1
    29    19    21    1
