@<TRIPOS>MOLECULE
2,10,11,12,13,14
 45 46 0 0 0
SMALL
GASTEIGER

@<TRIPOS>ATOM
      1 SI          5.2869    0.8162   10.5996 Si      1  UNL1        0.0000
      2 N           4.1645    2.1067   10.9194 N.3     1  UNL1        0.0000
      3 C           4.3561    3.4878   10.5129 C.3     1  UNL1        0.0000
      4 C           5.8076    3.8846   10.5698 C.ar    1  UNL1        0.0000
      5 C           6.5583    4.0197    9.4101 C.ar    1  UNL1        0.0000
      6 C           7.9049    4.3343    9.4760 C.ar    1  UNL1        0.0000
      7 C           8.5154    4.5191   10.7040 C.ar    1  UNL1        0.0000
      8 C           7.7722    4.3902   11.8659 C.ar    1  UNL1        0.0000
      9 C           6.4283    4.0734   11.7980 C.ar    1  UNL1        0.0000
     10 C           4.0326   -0.4574   11.2510 C.3     1  UNL1        0.0000
     11 C           2.8689   -0.8300   10.5053 C.2     1  UNL1        0.0000
     12 C           1.7992   -1.0246   11.4103 C.2     1  UNL1        0.0000
     13 C           2.2883   -0.7831   12.7272 C.2     1  UNL1        0.0000
     14 C           3.6540   -0.4345   12.6245 C.2     1  UNL1        0.0000
     15 C           2.8773   -1.2483    9.0656 C.3     1  UNL1        0.0000
     16 C           0.4501   -1.6166   11.1189 C.3     1  UNL1        0.0000
     17 C           1.5022   -1.0908   13.9705 C.3     1  UNL1        0.0000
     18 C           4.5907   -0.1563   13.7661 C.3     1  UNL1        0.0000
     19 C           6.9552    0.8269   11.5497 C.3     1  UNL1        0.0000
     20 C           5.8032    0.6333    8.7584 C.3     1  UNL1        0.0000
     21 H           3.9955    3.6391    9.4800 H       1  UNL1        0.0000
     22 H           3.7746    4.1502   11.1719 H       1  UNL1        0.0000
     23 H           6.0857    3.8818    8.4479 H       1  UNL1        0.0000
     24 H           8.4790    4.4363    8.5662 H       1  UNL1        0.0000
     25 H           9.5661    4.7647   10.7558 H       1  UNL1        0.0000
     26 H           8.2447    4.5376   12.8263 H       1  UNL1        0.0000
     27 H           5.8433    3.9696   12.6988 H       1  UNL1        0.0000
     28 H           1.8769   -1.2520    8.6387 H       1  UNL1        0.0000
     29 H           3.5052   -0.5984    8.4641 H       1  UNL1        0.0000
     30 H           3.2761   -2.2632    8.9907 H       1  UNL1        0.0000
     31 H           0.2464   -1.6256   10.0507 H       1  UNL1        0.0000
     32 H           0.4091   -2.6475   11.4799 H       1  UNL1        0.0000
     33 H          -0.3434   -1.0591   11.6209 H       1  UNL1        0.0000
     34 H           2.0021   -0.7267   14.8670 H       1  UNL1        0.0000
     35 H           1.3779   -2.1726   14.0706 H       1  UNL1        0.0000
     36 H           0.5059   -0.6467   13.9294 H       1  UNL1        0.0000
     37 H           4.1537   -0.4626   14.7159 H       1  UNL1        0.0000
     38 H           4.8404    0.9064   13.8240 H       1  UNL1        0.0000
     39 H           5.5178   -0.7114   13.6276 H       1  UNL1        0.0000
     40 H           7.3511   -0.1785   11.6497 H       1  UNL1        0.0000
     41 H           6.8717    1.2546   12.5418 H       1  UNL1        0.0000
     42 H           7.6874    1.4145   11.0061 H       1  UNL1        0.0000
     43 H           5.0375    0.9899    8.0768 H       1  UNL1        0.0000
     44 H           6.6998    1.2171    8.5780 H       1  UNL1        0.0000
     45 H           6.0279   -0.3965    8.5024 H       1  UNL1        0.0000
@<TRIPOS>BOND
     1    43    20    1
     2    23     5    1
     3    29    15    1
     4    45    20    1
     5    24     6    1
     6    44    20    1
     7    28    15    1
     8    20     1    1
     9    30    15    1
    10    15    11    1
    11     5     6   ar
    12     5     4   ar
    13     6     7   ar
    14    21     3    1
    15    31    16    1
    16    11    10    1
    17    11    12    2
    18     3     4    1
    19     3     2    1
    20     3    22    1
    21     4     9   ar
    22     1     2    1
    23     1    10    1
    24     1    19    1
    25     7    25    1
    26     7     8   ar
    27    42    19    1
    28    16    12    1
    29    16    32    1
    30    16    33    1
    31    10    14    1
    32    12    13    1
    33    19    40    1
    34    19    41    1
    35     9     8   ar
    36     9    27    1
    37     8    26    1
    38    14    13    2
    39    14    18    1
    40    13    17    1
    41    39    18    1
    42    18    38    1
    43    18    37    1
    44    36    17    1
    45    17    35    1
    46    17    34    1
