@<TRIPOS>MOLECULE
2,4,5,6,7
 36 37 0 0 0
SMALL
GASTEIGER

@<TRIPOS>ATOM
      1 SI         13.8980   11.6707    4.7324 Si      1  UNL1        0.0000
      2 N          12.7226   11.8001    3.4516 N.3     1  UNL1        0.0000
      3 C          15.1782   12.3671    3.5005 C.3     1  UNL1        0.0000
      4 C          15.0803   13.7088    3.0389 C.2     1  UNL1        0.0000
      5 C          15.4887   13.7595    1.6881 C.2     1  UNL1        0.0000
      6 C          15.8130   12.4471    1.2846 C.2     1  UNL1        0.0000
      7 C          15.6050   11.5911    2.3878 C.2     1  UNL1        0.0000
      8 C          11.3183   11.4301    3.4786 C.3     1  UNL1        0.0000
      9 C          11.1746    9.9062    3.4455 C.3     1  UNL1        0.0000
     10 C          10.6669   12.1099    4.6654 C.ar    1  UNL1        0.0000
     11 C          10.1000   11.4303    5.7331 C.ar    1  UNL1        0.0000
     12 C           9.5671   12.1310    6.8040 C.ar    1  UNL1        0.0000
     13 C           9.5973   13.5134    6.8213 C.ar    1  UNL1        0.0000
     14 C          10.1629   14.1994    5.7580 C.ar    1  UNL1        0.0000
     15 C          10.6935   13.5022    4.6897 C.ar    1  UNL1        0.0000
     16 C          14.3245    9.8916    5.2927 C.3     1  UNL1        0.0000
     17 C          13.6274   12.7989    6.2488 C.3     1  UNL1        0.0000
     18 H          14.8441   14.5686    3.6566 H       1  UNL1        0.0000
     19 H          15.6293   14.6586    1.0991 H       1  UNL1        0.0000
     20 H          16.2440   12.1633    0.3313 H       1  UNL1        0.0000
     21 H          15.8410   10.5329    2.4152 H       1  UNL1        0.0000
     22 H          10.8456   11.8329    2.5599 H       1  UNL1        0.0000
     23 H          10.1266    9.6218    3.3932 H       1  UNL1        0.0000
     24 H          11.6879    9.5313    2.5589 H       1  UNL1        0.0000
     25 H          11.6332    9.4647    4.3265 H       1  UNL1        0.0000
     26 H          10.0621   10.3525    5.7406 H       1  UNL1        0.0000
     27 H           9.1258   11.5903    7.6288 H       1  UNL1        0.0000
     28 H           9.1804   14.0550    7.6574 H       1  UNL1        0.0000
     29 H          10.1859   15.2792    5.7627 H       1  UNL1        0.0000
     30 H          11.1412   14.0311    3.8553 H       1  UNL1        0.0000
     31 H          15.3049    9.8621    5.7564 H       1  UNL1        0.0000
     32 H          14.3272    9.1966    4.4577 H       1  UNL1        0.0000
     33 H          13.6091    9.5343    6.0261 H       1  UNL1        0.0000
     34 H          13.3806   13.8142    5.9542 H       1  UNL1        0.0000
     35 H          14.5184   12.8327    6.8663 H       1  UNL1        0.0000
     36 H          12.8122   12.4309    6.8625 H       1  UNL1        0.0000
@<TRIPOS>BOND
     1    20     6    1
     2    19     5    1
     3     6     5    1
     4     6     7    2
     5     5     4    2
     6     7    21    1
     7     7     3    1
     8    24     9    1
     9    22     8    1
    10     4     3    1
    11     4    18    1
    12    23     9    1
    13     9     8    1
    14     9    25    1
    15     2     8    1
    16     2     1    1
    17     8    10    1
    18     3     1    1
    19    30    15    1
    20    32    16    1
    21    10    15   ar
    22    10    11   ar
    23    15    14   ar
    24     1    16    1
    25     1    17    1
    26    16    31    1
    27    16    33    1
    28    11    26    1
    29    11    12   ar
    30    14    29    1
    31    14    13   ar
    32    34    17    1
    33    17    36    1
    34    17    35    1
    35    12    13   ar
    36    12    27    1
    37    13    28    1
