@<TRIPOS>MOLECULE
1,16,17,18,19,20
 60 62 0 0 0
SMALL
GASTEIGER

@<TRIPOS>ATOM
      1 N           4.1111    3.2602    5.9983 N.3     1  UNL1       -0.3083
      2 C           3.2637    5.7708    2.9554 C.ar    1  UNL1       -0.0534
      3 H           2.3252    5.5224    3.4301 H       1  UNL1        0.0624
      4 C           3.3343    5.9089    1.5858 C.ar    1  UNL1       -0.0417
      5 C           4.5451    6.3315    1.0017 C.ar    1  UNL1       -0.0575
      6 H           4.5992    6.4652   -0.0676 H       1  UNL1        0.0621
      7 C           5.6600    6.6129    1.7547 C.ar    1  UNL1       -0.0535
      8 H           6.5568    6.9881    1.2814 H       1  UNL1        0.0624
      9 C           7.8351    7.2935    4.1824 C.ar    1  UNL1       -0.0535
     10 H           8.3281    7.5260    3.2480 H       1  UNL1        0.0624
     11 C           8.4529    7.5696    5.3798 C.ar    1  UNL1       -0.0575
     12 H           9.4404    8.0041    5.3584 H       1  UNL1        0.0621
     13 C           7.8336    7.3222    6.6228 C.ar    1  UNL1       -0.0417
     14 C           6.5678    6.7763    6.6445 C.ar    1  UNL1       -0.0534
     15 H           6.0465    6.6194    7.5778 H       1  UNL1        0.0624
     16 C           4.5848    5.9749    5.1803 C.3     1  UNL1        0.0366
     17 C           4.3974    5.9978    3.7633 C.ar    1  UNL1       -0.0277
     18 C           5.6201    6.4397    3.1383 C.ar    1  UNL1       -0.0135
     19 C           6.5569    6.7326    4.1818 C.ar    1  UNL1       -0.0135
     20 C           5.9039    6.4604    5.4400 C.ar    1  UNL1       -0.0277
     21 C           2.1510    5.6210    0.6725 C.3     1  UNL1       -0.0127
     22 C           1.7745    6.8972   -0.0925 C.3     1  UNL1       -0.0560
     23 H           2.6011    7.2512   -0.7017 H       1  UNL1        0.0238
     24 H           1.5050    7.6871    0.6058 H       1  UNL1        0.0238
     25 H           0.9252    6.7082   -0.7463 H       1  UNL1        0.0238
     26 C           0.9110    5.1418    1.4339 C.3     1  UNL1       -0.0560
     27 H           0.1083    4.9401    0.7271 H       1  UNL1        0.0238
     28 H           0.5590    5.9004    2.1295 H       1  UNL1        0.0238
     29 H           1.1167    4.2221    1.9782 H       1  UNL1        0.0238
     30 C           2.5497    4.5168   -0.3180 C.3     1  UNL1       -0.0560
     31 H           3.3825    4.8273   -0.9423 H       1  UNL1        0.0238
     32 H           1.7109    4.2726   -0.9671 H       1  UNL1        0.0238
     33 H           2.8453    3.6172    0.2188 H       1  UNL1        0.0238
     34 C           8.6011    7.6668    7.8910 C.3     1  UNL1       -0.0127
     35 C           8.9351    9.1653    7.8946 C.3     1  UNL1       -0.0560
     36 H           8.0205    9.7534    7.8525 H       1  UNL1        0.0238
     37 H           9.5523    9.4372    7.0432 H       1  UNL1        0.0238
     38 H           9.4740    9.4280    8.8029 H       1  UNL1        0.0238
     39 C           7.8128    7.3572    9.1669 C.3     1  UNL1       -0.0560
     40 H           8.4112    7.6245   10.0360 H       1  UNL1        0.0238
     41 H           7.5785    6.2976    9.2348 H       1  UNL1        0.0238
     42 H           6.8903    7.9325    9.2068 H       1  UNL1        0.0238
     43 C           9.8961    6.8419    7.9214 C.3     1  UNL1       -0.0560
     44 H          10.4484    7.0415    8.8379 H       1  UNL1        0.0238
     45 H          10.5384    7.0827    7.0789 H       1  UNL1        0.0238
     46 H           9.6631    5.7798    7.8782 H       1  UNL1        0.0238
     47 C           3.5384    5.6917    6.2227 C.3     1  UNL1       -0.0253
     48 H           2.5473    5.6893    5.7633 H       1  UNL1        0.0290
     49 H           3.5389    6.4791    6.9842 H       1  UNL1        0.0290
     50 C           3.7956    4.3525    6.9364 C.3     1  UNL1       -0.0005
     51 H           4.6569    4.4686    7.6027 H       1  UNL1        0.0427
     52 H           2.9211    4.0834    7.5530 H       1  UNL1        0.0427
     53 C           2.9068    2.9071    5.2366 C.3     1  UNL1       -0.0130
     54 H           2.0741    2.6579    5.9106 H       1  UNL1        0.0391
     55 H           3.1138    2.0416    4.6081 H       1  UNL1        0.0391
     56 H           2.6092    3.7323    4.5946 H       1  UNL1        0.0391
     57 C           4.5027    2.0818    6.7764 C.3     1  UNL1       -0.0130
     58 H           5.4013    2.2920    7.3516 H       1  UNL1        0.0391
     59 H           4.7122    1.2516    6.1033 H       1  UNL1        0.0391
     60 H           3.7014    1.7775    7.4654 H       1  UNL1        0.0391
@<TRIPOS>BOND
     1    32    30    1
     2    31    30    1
     3    25    22    1
     4    23    22    1
     5    30    33    1
     6    30    21    1
     7    22    24    1
     8    22    21    1
     9     6     5    1
    10    21    26    1
    11    21     4    1
    12    27    26    1
    13     5     4   ar
    14     5     7   ar
    15     8     7    1
    16    26    29    1
    17    26    28    1
    18     4     2   ar
    19     7    18   ar
    20     2     3    1
    21     2    17   ar
    22    18    17   ar
    23    18    19    1
    24    10     9    1
    25    17    16    1
    26    19     9   ar
    27    19    20   ar
    28     9    11   ar
    29    56    53    1
    30    55    53    1
    31    16    20    1
    32    16    47    1
    33    53    54    1
    34    53     1    1
    35    12    11    1
    36    11    13   ar
    37    20    14   ar
    38    48    47    1
    39     1    57    1
    40     1    50    1
    41    59    57    1
    42    47    50    1
    43    47    49    1
    44    13    14   ar
    45    13    34    1
    46    14    15    1
    47    57    58    1
    48    57    60    1
    49    50    52    1
    50    50    51    1
    51    37    35    1
    52    45    43    1
    53    36    35    1
    54    46    43    1
    55    34    35    1
    56    34    43    1
    57    34    39    1
    58    35    38    1
    59    43    44    1
    60    39    42    1
    61    39    41    1
    62    39    40    1
