@<TRIPOS>MOLECULE
2,4,5,6,7
 51 52 0 0 0
SMALL
GASTEIGER

@<TRIPOS>ATOM
      1 SI          6.6988   14.0397    1.9990 Si      1  UNL1        0.0000
      2 N           6.0412   12.4580    2.2185 N.pl3   1  UNL1        0.0000
      3 C           6.0766   14.6112    3.7090 C.3     1  UNL1        0.0000
      4 C           6.6117   14.0191    4.9010 C.3     1  UNL1        0.0000
      5 C           5.5981   13.9783    5.8884 C.2     1  UNL1        0.0000
      6 C           4.4130   14.5227    5.3131 C.2     1  UNL1        0.0000
      7 C           4.7092   14.9053    3.9784 C.3     1  UNL1        0.0000
      8 C           8.0744   13.7350    5.1179 C.3     1  UNL1        0.0000
      9 H           8.2858   13.5315    6.1669 H       1  UNL1        0.0000
     10 H           8.6594   14.6063    4.8233 H       1  UNL1        0.0000
     11 H           8.4276   12.8884    4.5267 H       1  UNL1        0.0000
     12 C           5.7387   13.6736    7.3554 C.3     1  UNL1        0.0000
     13 H           6.7129   13.2471    7.5898 H       1  UNL1        0.0000
     14 H           4.9705   12.9767    7.6952 H       1  UNL1        0.0000
     15 H           5.6303   14.5917    7.9372 H       1  UNL1        0.0000
     16 C           3.1697   14.8745    6.0773 C.3     1  UNL1        0.0000
     17 H           3.2980   15.8363    6.5811 H       1  UNL1        0.0000
     18 H           2.9527   14.1265    6.8385 H       1  UNL1        0.0000
     19 H           2.3112   14.9538    5.4130 H       1  UNL1        0.0000
     20 C           3.7753   15.6996    3.1068 C.3     1  UNL1        0.0000
     21 H           2.9095   15.1150    2.7841 H       1  UNL1        0.0000
     22 H           4.2991   16.0615    2.2281 H       1  UNL1        0.0000
     23 H           3.4014   16.5642    3.6586 H       1  UNL1        0.0000
     24 C           8.5971   14.1769    1.7502 C.3     1  UNL1        0.0000
     25 H           9.1751   13.5673    2.4337 H       1  UNL1        0.0000
     26 H           8.9222   15.2051    1.8708 H       1  UNL1        0.0000
     27 H           8.8535   13.8711    0.7410 H       1  UNL1        0.0000
     28 C           6.0347   14.9859    0.4702 C.3     1  UNL1        0.0000
     29 H           6.4237   14.5158   -0.4275 H       1  UNL1        0.0000
     30 H           6.3659   16.0190    0.4674 H       1  UNL1        0.0000
     31 H           4.9539   14.9772    0.3976 H       1  UNL1        0.0000
     32 C           5.8596   11.4405    1.2977 C.ar    1  UNL1        0.0000
     33 C           4.6426   11.2994    0.5957 C.ar    1  UNL1        0.0000
     34 C           4.4602   10.2351   -0.2685 C.ar    1  UNL1        0.0000
     35 H           3.5195   10.1439   -0.7956 H       1  UNL1        0.0000
     36 C           5.4513    9.2870   -0.4881 C.ar    1  UNL1        0.0000
     37 C           6.6545    9.4404    0.1818 C.ar    1  UNL1        0.0000
     38 H           7.4500    8.7250    0.0179 H       1  UNL1        0.0000
     39 C           6.8733   10.4905    1.0582 C.ar    1  UNL1        0.0000
     40 C           3.5459   12.3140    0.7588 C.3     1  UNL1        0.0000
     41 H           2.5690   11.8325    0.7432 H       1  UNL1        0.0000
     42 H           3.5804   13.0289   -0.0638 H       1  UNL1        0.0000
     43 H           3.6715   12.8667    1.7021 H       1  UNL1        0.0000
     44 C           5.2218    8.1490   -1.4380 C.3     1  UNL1        0.0000
     45 H           4.2904    7.6348   -1.2044 H       1  UNL1        0.0000
     46 H           6.0378    7.4320   -1.3891 H       1  UNL1        0.0000
     47 H           5.1499    8.5177   -2.4614 H       1  UNL1        0.0000
     48 C           8.2048   10.6231    1.7386 C.3     1  UNL1        0.0000
     49 H           8.5946    9.6487    2.0314 H       1  UNL1        0.0000
     50 H           8.1092   11.2644    2.6131 H       1  UNL1        0.0000
     51 H           8.9257   11.0862    1.0652 H       1  UNL1        0.0000
@<TRIPOS>BOND
     1    47    44    1
     2    44    46    1
     3    44    45    1
     4    44    36    1
     5    35    34    1
     6    36    34   ar
     7    36    37   ar
     8    29    28    1
     9    34    33   ar
    10    42    40    1
    11    38    37    1
    12    37    39   ar
    13    31    28    1
    14    30    28    1
    15    28     1    1
    16    33    40    1
    17    33    32   ar
    18    27    24    1
    19    41    40    1
    20    40    43    1
    21    39    32   ar
    22    39    48    1
    23    51    48    1
    24    32     2    1
    25    48    49    1
    26    48    50    1
    27    24    26    1
    28    24     1    1
    29    24    25    1
    30     1     2    1
    31     1     3    1
    32    22    20    1
    33    21    20    1
    34    20    23    1
    35    20     7    1
    36     3     7    1
    37     3     4    1
    38     7     6    1
    39    11     8    1
    40    10     8    1
    41     4     8    1
    42     4     5    1
    43     8     9    1
    44     6     5    2
    45     6    16    1
    46    19    16    1
    47     5    12    1
    48    16    17    1
    49    16    18    1
    50    12    13    1
    51    12    14    1
    52    12    15    1
