@<TRIPOS>MOLECULE
2,3,4,19,20,28
 78 81 0 0 0
SMALL
GASTEIGER

@<TRIPOS>ATOM
      1 SI          4.8802   -1.2133   27.9267 Si      1  UNL1        0.0000
      2 N           6.5165   -1.5846   27.5167 N.3     1  UNL1        0.0000
      3 C           5.2346    0.6615   27.9535 C.3     1  UNL1        0.0000
      4 C           5.5646    1.3788   26.7473 C.3     1  UNL1        0.0000
      5 C           5.2702    1.1295   25.3961 C.2     1  UNL1        0.0000
      6 H           4.5946    0.3215   25.1562 H       1  UNL1        0.0000
      7 C           5.8027    1.9079   24.3817 C.2     1  UNL1        0.0000
      8 C           5.5044    1.4842   22.9525 C.3     1  UNL1        0.0000
      9 C           6.3812    2.2519   21.9568 C.3     1  UNL1        0.0000
     10 H           7.3864    1.8288   21.9706 H       1  UNL1        0.0000
     11 H           5.9802    2.1176   20.9497 H       1  UNL1        0.0000
     12 C           6.4565    3.7306   22.2898 C.3     1  UNL1        0.0000
     13 H           5.4484    4.1482   22.3304 H       1  UNL1        0.0000
     14 H           6.9996    4.2600   21.5038 H       1  UNL1        0.0000
     15 C           7.1527    3.9722   23.6330 C.3     1  UNL1        0.0000
     16 C           6.6090    3.0303   24.6924 C.2     1  UNL1        0.0000
     17 C           6.9613    3.2678   26.0102 C.2     1  UNL1        0.0000
     18 H           7.6116    4.0959   26.2590 H       1  UNL1        0.0000
     19 C           6.4998    2.4428   27.0374 C.3     1  UNL1        0.0000
     20 C           6.7970    2.3707   28.4455 C.ar    1  UNL1        0.0000
     21 C           7.6552    3.0989   29.2788 C.ar    1  UNL1        0.0000
     22 H           8.2066    3.9472   28.8917 H       1  UNL1        0.0000
     23 C           7.7941    2.7181   30.5915 C.ar    1  UNL1        0.0000
     24 H           8.4703    3.2762   31.2196 H       1  UNL1        0.0000
     25 C           7.0958    1.6171   31.1341 C.ar    1  UNL1        0.0000
     26 C           6.2108    0.9203   30.3385 C.ar    1  UNL1        0.0000
     27 H           5.6307    0.1028   30.7331 H       1  UNL1        0.0000
     28 C           6.0296    1.2715   28.9860 C.ar    1  UNL1        0.0000
     29 C           5.8259   -0.0095   22.7821 C.3     1  UNL1        0.0000
     30 H           5.1094   -0.6428   23.2975 H       1  UNL1        0.0000
     31 H           6.8206   -0.2201   23.1718 H       1  UNL1        0.0000
     32 H           5.8041   -0.2709   21.7260 H       1  UNL1        0.0000
     33 C           4.0196    1.7235   22.6462 C.3     1  UNL1        0.0000
     34 H           3.3889    1.1720   23.3388 H       1  UNL1        0.0000
     35 H           3.7879    1.3969   21.6345 H       1  UNL1        0.0000
     36 H           3.7705    2.7778   22.7353 H       1  UNL1        0.0000
     37 C           6.8964    5.4357   24.0254 C.3     1  UNL1        0.0000
     38 H           5.8477    5.5846   24.2748 H       1  UNL1        0.0000
     39 H           7.1486    6.0863   23.1903 H       1  UNL1        0.0000
     40 H           7.4974    5.7412   24.8770 H       1  UNL1        0.0000
     41 C           8.6657    3.7428   23.5035 C.3     1  UNL1        0.0000
     42 H           9.1739    4.0209   24.4237 H       1  UNL1        0.0000
     43 H           9.0733    4.3419   22.6917 H       1  UNL1        0.0000
     44 H           8.8848    2.6954   23.3132 H       1  UNL1        0.0000
     45 C           7.3775    1.2235   32.5759 C.3     1  UNL1        0.0000
     46 C           6.9839    2.3767   33.5090 C.3     1  UNL1        0.0000
     47 H           5.9208    2.5894   33.4154 H       1  UNL1        0.0000
     48 H           7.5339    3.2834   33.2733 H       1  UNL1        0.0000
     49 H           7.1939    2.1100   34.5426 H       1  UNL1        0.0000
     50 C           8.8777    0.9222   32.7096 C.3     1  UNL1        0.0000
     51 H           9.0954    0.5221   33.6976 H       1  UNL1        0.0000
     52 H           9.4774    1.8163   32.5667 H       1  UNL1        0.0000
     53 H           9.1782    0.1918   31.9612 H       1  UNL1        0.0000
     54 C           6.6047   -0.0267   33.0057 C.3     1  UNL1        0.0000
     55 H           5.5305    0.1355   32.9537 H       1  UNL1        0.0000
     56 H           6.8566   -0.2704   34.0360 H       1  UNL1        0.0000
     57 H           6.8708   -0.8779   32.3831 H       1  UNL1        0.0000
     58 C           4.3181   -1.9473   29.6084 C.3     1  UNL1        0.0000
     59 H           3.8494   -2.9149   29.4637 H       1  UNL1        0.0000
     60 H           3.5920   -1.3079   30.0985 H       1  UNL1        0.0000
     61 H           5.1557   -2.0908   30.2836 H       1  UNL1        0.0000
     62 C           3.4796   -1.6769   26.6918 C.3     1  UNL1        0.0000
     63 H           3.8243   -1.7256   25.6642 H       1  UNL1        0.0000
     64 H           2.6657   -0.9609   26.7351 H       1  UNL1        0.0000
     65 H           3.0667   -2.6493   26.9394 H       1  UNL1        0.0000
     66 C           7.1102   -2.7716   26.9337 C.3     1  UNL1        0.0000
     67 C           6.9231   -2.7291   25.4040 C.3     1  UNL1        0.0000
     68 H           5.8710   -2.8524   25.1573 H       1  UNL1        0.0000
     69 H           7.4899   -3.5221   24.9214 H       1  UNL1        0.0000
     70 H           7.2654   -1.7590   25.0271 H       1  UNL1        0.0000
     71 C           8.6210   -2.7522   27.2567 C.3     1  UNL1        0.0000
     72 H           9.1120   -1.9108   26.7447 H       1  UNL1        0.0000
     73 H           9.0924   -3.6774   26.9278 H       1  UNL1        0.0000
     74 H           8.7628   -2.6500   28.3372 H       1  UNL1        0.0000
     75 C           6.4845   -4.0494   27.5063 C.3     1  UNL1        0.0000
     76 H           6.6039   -4.0621   28.5865 H       1  UNL1        0.0000
     77 H           6.9608   -4.9306   27.0841 H       1  UNL1        0.0000
     78 H           5.4235   -4.0765   27.2752 H       1  UNL1        0.0000
@<TRIPOS>BOND
     1    11     9    1
     2    14    12    1
     3    35    33    1
     4    32    29    1
     5     9    10    1
     6     9    12    1
     7     9     8    1
     8    12    13    1
     9    12    15    1
    10    33    36    1
    11    33     8    1
    12    33    34    1
    13    43    41    1
    14    29     8    1
    15    29    31    1
    16    29    30    1
    17     8     7    1
    18    39    37    1
    19    44    41    1
    20    41    15    1
    21    41    42    1
    22    15    37    1
    23    15    16    1
    24    37    38    1
    25    37    40    1
    26     7    16    1
    27     7     5    2
    28    16    17    2
    29    69    67    1
    30    70    67    1
    31     6     5    1
    32    68    67    1
    33     5     4    1
    34    67    66    1
    35    63    62    1
    36    17    18    1
    37    17    19    1
    38    62    64    1
    39    62    65    1
    40    62     1    1
    41    72    71    1
    42     4    19    1
    43     4     3    1
    44    73    71    1
    45    66    71    1
    46    66    75    1
    47    66     2    1
    48    19    20    1
    49    77    75    1
    50    71    74    1
    51    78    75    1
    52    75    76    1
    53     2     1    1
    54     1     3    1
    55     1    58    1
    56     3    28    1
    57    20    28   ar
    58    20    21   ar
    59    22    21    1
    60    28    26   ar
    61    21    23   ar
    62    59    58    1
    63    58    60    1
    64    58    61    1
    65    26    27    1
    66    26    25   ar
    67    23    25   ar
    68    23    24    1
    69    25    45    1
    70    53    50    1
    71    57    54    1
    72    52    50    1
    73    45    50    1
    74    45    54    1
    75    45    46    1
    76    50    51    1
    77    55    54    1
    78    54    56    1
    79    48    46    1
    80    47    46    1
    81    46    49    1
