@<TRIPOS>MOLECULE
2,3,4,19,20,28
 72 75 0 0 0
SMALL
GASTEIGER

@<TRIPOS>ATOM
      1 SI          3.2153    7.9193    3.4554 Si      1  UNL1        0.0000
      2 N           4.5225    7.2640    2.5369 N.3     1  UNL1        0.0000
      3 C           3.8944    9.6945    3.2897 C.3     1  UNL1        0.0000
      4 C           5.1407   10.0755    3.9060 C.3     1  UNL1        0.0000
      5 C           5.8328    9.5645    5.0177 C.2     1  UNL1        0.0000
      6 H           5.3484    8.8145    5.6262 H       1  UNL1        0.0000
      7 C           7.0954   10.0209    5.3586 C.2     1  UNL1        0.0000
      8 C           7.7941    9.3275    6.5172 C.3     1  UNL1        0.0000
      9 C           9.2706    9.7327    6.5908 C.3     1  UNL1        0.0000
     10 H           9.6774    9.4271    7.5575 H       1  UNL1        0.0000
     11 H           9.8232    9.1989    5.8167 H       1  UNL1        0.0000
     12 C           9.4592   11.2264    6.4003 C.3     1  UNL1        0.0000
     13 H          10.5062   11.4911    6.5634 H       1  UNL1        0.0000
     14 H           8.8651   11.7674    7.1395 H       1  UNL1        0.0000
     15 C           9.0397   11.6745    4.9965 C.3     1  UNL1        0.0000
     16 C           7.6964   11.0727    4.6241 C.2     1  UNL1        0.0000
     17 C           7.0648   11.5546    3.4899 C.2     1  UNL1        0.0000
     18 H           7.5317   12.3281    2.8945 H       1  UNL1        0.0000
     19 C           5.8269   11.0500    3.0866 C.3     1  UNL1        0.0000
     20 C           5.0129   11.2667    1.9166 C.ar    1  UNL1        0.0000
     21 C           5.1856   12.0654    0.7792 C.ar    1  UNL1        0.0000
     22 H           6.0505   12.7113    0.6898 H       1  UNL1        0.0000
     23 C           4.2420   12.0158   -0.2197 C.ar    1  UNL1        0.0000
     24 H           4.3701   12.6161   -1.1083 H       1  UNL1        0.0000
     25 C           3.1078   11.1881   -0.1202 C.ar    1  UNL1        0.0000
     26 C           2.9062   10.4114    1.0008 C.ar    1  UNL1        0.0000
     27 H           2.0160    9.8038    1.0818 H       1  UNL1        0.0000
     28 C           3.8438   10.4235    2.0510 C.ar    1  UNL1        0.0000
     29 C           7.7511    7.8054    6.3052 C.3     1  UNL1        0.0000
     30 H           6.7527    7.4017    6.4467 H       1  UNL1        0.0000
     31 H           8.4133    7.3175    7.0175 H       1  UNL1        0.0000
     32 H           8.0853    7.5637    5.2975 H       1  UNL1        0.0000
     33 C           7.0812    9.6788    7.8303 C.3     1  UNL1        0.0000
     34 H           6.0340    9.3901    7.7902 H       1  UNL1        0.0000
     35 H           7.1255   10.7479    8.0214 H       1  UNL1        0.0000
     36 H           7.5506    9.1583    8.6625 H       1  UNL1        0.0000
     37 C          10.0804   11.2320    3.9575 C.3     1  UNL1        0.0000
     38 H          10.0984   10.1496    3.8623 H       1  UNL1        0.0000
     39 H          11.0722   11.5782    4.2416 H       1  UNL1        0.0000
     40 H           9.8412   11.6422    2.9793 H       1  UNL1        0.0000
     41 C           8.9617   13.2093    5.0096 C.3     1  UNL1        0.0000
     42 H           8.8395   13.6202    4.0117 H       1  UNL1        0.0000
     43 H           9.8805   13.6170    5.4264 H       1  UNL1        0.0000
     44 H           8.1266   13.5427    5.6224 H       1  UNL1        0.0000
     45 C           2.0947   11.1987   -1.2303 C.3     1  UNL1        0.0000
     46 H           1.5398   10.2586   -1.2333 H       1  UNL1        0.0000
     47 H           2.6039   11.2961   -2.1911 H       1  UNL1        0.0000
     48 C           1.1169   12.3624   -1.0558 C.3     1  UNL1        0.0000
     49 H           0.3864   12.3711   -1.8615 H       1  UNL1        0.0000
     50 H           1.6505   13.3101   -1.0606 H       1  UNL1        0.0000
     51 H           0.5899   12.2725   -0.1085 H       1  UNL1        0.0000
     52 C           5.0181    5.9090    2.3981 C.3     1  UNL1        0.0000
     53 C           5.7930    5.8243    1.0640 C.3     1  UNL1        0.0000
     54 H           6.6929    6.4570    1.1023 H       1  UNL1        0.0000
     55 H           5.1490    6.1611    0.2454 H       1  UNL1        0.0000
     56 H           6.1016    4.7984    0.8673 H       1  UNL1        0.0000
     57 C           5.9836    5.6064    3.5611 C.3     1  UNL1        0.0000
     58 H           5.4319    5.5681    4.4978 H       1  UNL1        0.0000
     59 H           6.7328    6.4031    3.6224 H       1  UNL1        0.0000
     60 H           6.4847    4.6527    3.4117 H       1  UNL1        0.0000
     61 C           3.8717    4.8904    2.3857 C.3     1  UNL1        0.0000
     62 H           3.3277    4.9353    3.3249 H       1  UNL1        0.0000
     63 H           4.2569    3.8833    2.2484 H       1  UNL1        0.0000
     64 H           3.1851    5.1234    1.5761 H       1  UNL1        0.0000
     65 C           3.0150    7.3767    5.2906 C.3     1  UNL1        0.0000
     66 H           2.3013    6.5631    5.3676 H       1  UNL1        0.0000
     67 H           2.6432    8.1905    5.9042 H       1  UNL1        0.0000
     68 H           3.9464    7.0307    5.7270 H       1  UNL1        0.0000
     69 C           1.4921    7.6492    2.6574 C.3     1  UNL1        0.0000
     70 H           1.0524    6.7204    3.0052 H       1  UNL1        0.0000
     71 H           1.5585    7.5929    1.5754 H       1  UNL1        0.0000
     72 H           0.8050    8.4477    2.9154 H       1  UNL1        0.0000
@<TRIPOS>BOND
     1    47    45    1
     2    49    48    1
     3    46    45    1
     4    45    48    1
     5    45    25    1
     6    24    23    1
     7    50    48    1
     8    48    51    1
     9    23    25   ar
    10    23    21   ar
    11    25    26   ar
    12    55    53    1
    13    22    21    1
    14    21    20   ar
    15    56    53    1
    16    26    27    1
    17    26    28   ar
    18    53    54    1
    19    53    52    1
    20    71    69    1
    21    64    61    1
    22    20    28   ar
    23    20    19    1
    24    28     3    1
    25    63    61    1
    26    61    52    1
    27    61    62    1
    28    52     2    1
    29    52    57    1
    30     2     1    1
    31    69    72    1
    32    69    70    1
    33    69     1    1
    34    18    17    1
    35    40    37    1
    36    19    17    1
    37    19     4    1
    38     3     1    1
    39     3     4    1
    40    60    57    1
    41     1    65    1
    42    17    16    2
    43    57    59    1
    44    57    58    1
    45    38    37    1
    46     4     5    1
    47    37    39    1
    48    37    15    1
    49    42    41    1
    50    16    15    1
    51    16     7    1
    52    15    41    1
    53    15    12    1
    54    41    43    1
    55    41    44    1
    56     5     7    2
    57     5     6    1
    58    65    66    1
    59    65    68    1
    60    65    67    1
    61    32    29    1
    62     7     8    1
    63    11     9    1
    64    29    30    1
    65    29     8    1
    66    29    31    1
    67    12    13    1
    68    12     9    1
    69    12    14    1
    70     8     9    1
    71     8    33    1
    72     9    10    1
    73    34    33    1
    74    33    35    1
    75    33    36    1
