@<TRIPOS>MOLECULE
2,3,4,8,13,31
 66 69 0 0 0
SMALL
GASTEIGER

@<TRIPOS>ATOM
      1 SI          4.2439    0.6750    2.4679 Si      1  UNL1        0.0000
      2 C           5.2489    1.3126    0.9859 C.3     1  UNL1        0.0000
      3 C           4.5824    1.9021   -0.1371 C.3     1  UNL1        0.0000
      4 C           6.4917    2.0099    1.1005 C.ar    1  UNL1        0.0000
      5 C           1.4180    2.2014   -2.2213 C.3     1  UNL1        0.0000
      6 C           2.8460    2.4442   -1.7572 C.2     1  UNL1        0.0000
      7 C           3.7149    3.3508   -2.4131 C.3     1  UNL1        0.0000
      8 C           5.4108    2.9217   -0.7371 C.2     1  UNL1        0.0000
      9 C           4.9704    3.5920   -1.8782 C.2     1  UNL1        0.0000
     10 H           5.6332    4.3040   -2.3518 H       1  UNL1        0.0000
     11 C           7.5582    1.8787    2.0124 C.ar    1  UNL1        0.0000
     12 H           7.5147    1.1315    2.7921 H       1  UNL1        0.0000
     13 C           6.6134    2.9971    0.0455 C.ar    1  UNL1        0.0000
     14 C           3.3260    4.1034   -3.6751 C.3     1  UNL1        0.0000
     15 C           7.7676    3.7780   -0.0728 C.ar    1  UNL1        0.0000
     16 H           7.8644    4.4911   -0.8825 H       1  UNL1        0.0000
     17 C           8.7841    3.6158    0.8426 C.ar    1  UNL1        0.0000
     18 H           9.6823    4.2108    0.7658 H       1  UNL1        0.0000
     19 C           3.2873    1.7302   -0.6551 C.2     1  UNL1        0.0000
     20 H           2.6480    0.9835   -0.2054 H       1  UNL1        0.0000
     21 C           8.6726    2.6726    1.8750 C.ar    1  UNL1        0.0000
     22 H           9.4933    2.5664    2.5706 H       1  UNL1        0.0000
     23 C           4.4306    3.9817   -4.7370 C.3     1  UNL1        0.0000
     24 H           5.3195    4.5430   -4.4645 H       1  UNL1        0.0000
     25 H           4.0697    4.3701   -5.6877 H       1  UNL1        0.0000
     26 H           4.7121    2.9397   -4.8736 H       1  UNL1        0.0000
     27 C           3.1279    5.5883   -3.3360 C.3     1  UNL1        0.0000
     28 H           4.0384    6.0094   -2.9164 H       1  UNL1        0.0000
     29 H           2.3327    5.7200   -2.6065 H       1  UNL1        0.0000
     30 H           2.8711    6.1497   -4.2325 H       1  UNL1        0.0000
     31 N           3.6105    2.2193    2.8801 N.3     1  UNL1        0.0000
     32 C           2.4568    2.5798    3.6735 C.3     1  UNL1        0.0000
     33 C           5.3164   -0.1185    3.8521 C.3     1  UNL1        0.0000
     34 H           4.6886   -0.6525    4.5579 H       1  UNL1        0.0000
     35 H           5.8647    0.6359    4.4088 H       1  UNL1        0.0000
     36 H           6.0289   -0.8309    3.4505 H       1  UNL1        0.0000
     37 C           1.2461    2.7665    2.7339 C.3     1  UNL1        0.0000
     38 H           1.5354    3.4328    1.9120 H       1  UNL1        0.0000
     39 H           0.3963    3.1889    3.2664 H       1  UNL1        0.0000
     40 H           0.9532    1.8043    2.3196 H       1  UNL1        0.0000
     41 C           3.0180   -0.7199    1.9411 C.3     1  UNL1        0.0000
     42 H           2.8485   -1.4070    2.7636 H       1  UNL1        0.0000
     43 H           3.4022   -1.3005    1.1088 H       1  UNL1        0.0000
     44 H           2.0502   -0.3242    1.6483 H       1  UNL1        0.0000
     45 C           2.7487    3.9210    4.3821 C.3     1  UNL1        0.0000
     46 H           2.8865    4.7147    3.6367 H       1  UNL1        0.0000
     47 H           3.6607    3.8242    4.9731 H       1  UNL1        0.0000
     48 H           1.9274    4.1899    5.0446 H       1  UNL1        0.0000
     49 C           0.4480    2.2743   -1.0307 C.3     1  UNL1        0.0000
     50 H           0.6204    3.1817   -0.4539 H       1  UNL1        0.0000
     51 H           0.5555    1.4211   -0.3679 H       1  UNL1        0.0000
     52 H          -0.5778    2.2866   -1.3945 H       1  UNL1        0.0000
     53 C           2.1254    1.5241    4.7371 C.3     1  UNL1        0.0000
     54 H           2.9814    1.3855    5.3916 H       1  UNL1        0.0000
     55 H           1.8984    0.5749    4.2619 H       1  UNL1        0.0000
     56 H           1.2694    1.8344    5.3317 H       1  UNL1        0.0000
     57 C           1.3253    0.8047   -2.8518 C.3     1  UNL1        0.0000
     58 H           1.9919    0.7186   -3.7058 H       1  UNL1        0.0000
     59 H           0.3078    0.6066   -3.1836 H       1  UNL1        0.0000
     60 H           1.6081    0.0418   -2.1310 H       1  UNL1        0.0000
     61 C           2.0436    3.5250   -4.2833 C.3     1  UNL1        0.0000
     62 H           1.6594    4.2182   -5.0354 H       1  UNL1        0.0000
     63 H           2.2813    2.5894   -4.7923 H       1  UNL1        0.0000
     64 C           0.9807    3.2694   -3.2301 C.3     1  UNL1        0.0000
     65 H           0.0534    2.9497   -3.7114 H       1  UNL1        0.0000
     66 H           0.7679    4.1980   -2.6968 H       1  UNL1        0.0000
@<TRIPOS>BOND
     1    25    23    1
     2    62    61    1
     3    26    23    1
     4    63    61    1
     5    23    24    1
     6    23    14    1
     7    61    14    1
     8    61    64    1
     9    30    27    1
    10    65    64    1
    11    58    57    1
    12    14    27    1
    13    14     7    1
    14    27    28    1
    15    27    29    1
    16    64    66    1
    17    64     5    1
    18    59    57    1
    19    57     5    1
    20    57    60    1
    21     7     9    1
    22     7     6    1
    23    10     9    1
    24     5     6    1
    25     5    49    1
    26     9     8    2
    27     6    19    2
    28    52    49    1
    29    49    50    1
    30    49    51    1
    31    16    15    1
    32     8     3    1
    33     8    13    1
    34    19    20    1
    35    19     3    1
    36     3     2    1
    37    15    13   ar
    38    15    17   ar
    39    13     4   ar
    40    18    17    1
    41    17    21   ar
    42     2     4    1
    43     2     1    1
    44     4    11   ar
    45    43    41    1
    46    44    41    1
    47    21    11   ar
    48    21    22    1
    49    38    37    1
    50    41     1    1
    51    41    42    1
    52    11    12    1
    53    40    37    1
    54     1    31    1
    55     1    33    1
    56    37    39    1
    57    37    32    1
    58    31    32    1
    59    36    33    1
    60    46    45    1
    61    32    45    1
    62    32    53    1
    63    33    35    1
    64    33    34    1
    65    55    53    1
    66    45    47    1
    67    45    48    1
    68    53    56    1
    69    53    54    1
