@<TRIPOS>MOLECULE
2,3,4,5,6,7
 44 44 0 0 0
SMALL
GASTEIGER

@<TRIPOS>ATOM
      1 SI          6.3345    0.6012    2.9945 Si      1  UNL1        0.0000
      2 N           7.3768    1.5482    3.9845 N.3     1  UNL1        0.0000
      3 C           7.6213    0.3424    1.6102 C.2     1  UNL1        0.0000
      4 C           8.7233   -0.5612    1.6826 C.3     1  UNL1        0.0000
      5 C           9.8043   -0.0269    0.9366 C.2     1  UNL1        0.0000
      6 C           9.3872    1.2221    0.3913 C.2     1  UNL1        0.0000
      7 C           8.0566    1.4560    0.8154 C.2     1  UNL1        0.0000
      8 C           8.6566   -1.9673    2.2128 C.3     1  UNL1        0.0000
      9 H           8.3207   -2.6446    1.4221 H       1  UNL1        0.0000
     10 H           7.9507   -2.0489    3.0344 H       1  UNL1        0.0000
     11 H           9.6295   -2.3249    2.5539 H       1  UNL1        0.0000
     12 C          11.0928   -0.7202    0.5749 C.3     1  UNL1        0.0000
     13 H          11.2121   -0.7478   -0.5098 H       1  UNL1        0.0000
     14 H          11.0945   -1.7492    0.9299 H       1  UNL1        0.0000
     15 H          11.9646   -0.2061    0.9904 H       1  UNL1        0.0000
     16 C          10.1542    2.0168   -0.6310 C.3     1  UNL1        0.0000
     17 H           9.8540    1.7208   -1.6400 H       1  UNL1        0.0000
     18 H          11.2258    1.8431   -0.5404 H       1  UNL1        0.0000
     19 H           9.9741    3.0871   -0.5291 H       1  UNL1        0.0000
     20 C           7.1699    2.5613    0.3116 C.3     1  UNL1        0.0000
     21 H           6.4458    2.1596   -0.4012 H       1  UNL1        0.0000
     22 H           7.7514    3.3283   -0.1981 H       1  UNL1        0.0000
     23 H           6.6105    3.0295    1.1212 H       1  UNL1        0.0000
     24 C           5.6756   -1.0341    3.7767 C.3     1  UNL1        0.0000
     25 H           4.7875   -0.8299    4.3668 H       1  UNL1        0.0000
     26 H           6.3902   -1.5204    4.4316 H       1  UNL1        0.0000
     27 H           5.3904   -1.7441    3.0077 H       1  UNL1        0.0000
     28 C           4.6839    1.3136    2.2949 C.3     1  UNL1        0.0000
     29 H           3.8983    1.2222    3.0390 H       1  UNL1        0.0000
     30 H           4.3651    0.7518    1.4226 H       1  UNL1        0.0000
     31 H           4.7384    2.3571    2.0080 H       1  UNL1        0.0000
     32 C           7.0031    2.4730    5.0380 C.3     1  UNL1        0.0000
     33 C           8.2794    3.2079    5.4948 C.3     1  UNL1        0.0000
     34 H           8.6414    3.8530    4.6875 H       1  UNL1        0.0000
     35 H           9.0558    2.4761    5.7437 H       1  UNL1        0.0000
     36 H           8.0767    3.8203    6.3732 H       1  UNL1        0.0000
     37 C           5.9901    3.5229    4.5441 C.3     1  UNL1        0.0000
     38 H           5.0231    3.0585    4.3792 H       1  UNL1        0.0000
     39 H           6.3332    3.9524    3.6043 H       1  UNL1        0.0000
     40 H           5.8770    4.3214    5.2741 H       1  UNL1        0.0000
     41 C           6.3829    1.7546    6.2527 C.3     1  UNL1        0.0000
     42 H           5.5809    1.1006    5.9225 H       1  UNL1        0.0000
     43 H           5.9797    2.4793    6.9566 H       1  UNL1        0.0000
     44 H           7.1310    1.1579    6.7698 H       1  UNL1        0.0000
@<TRIPOS>BOND
     1    17    16    1
     2    16    18    1
     3    16    19    1
     4    16     6    1
     5    13    12    1
     6    21    20    1
     7    22    20    1
     8    20     7    1
     9    20    23    1
    10     6     7    1
    11     6     5    2
    12    12    14    1
    13    12     5    1
    14    12    15    1
    15     7     3    2
    16     5     4    1
    17     9     8    1
    18    30    28    1
    19     3     4    1
    20     3     1    1
    21     4     8    1
    22    31    28    1
    23     8    11    1
    24     8    10    1
    25    28     1    1
    26    28    29    1
    27     1    24    1
    28     1     2    1
    29    27    24    1
    30    39    37    1
    31    24    25    1
    32    24    26    1
    33     2    32    1
    34    38    37    1
    35    37    32    1
    36    37    40    1
    37    34    33    1
    38    32    33    1
    39    32    41    1
    40    33    35    1
    41    33    36    1
    42    42    41    1
    43    41    44    1
    44    41    43    1
