@<TRIPOS>MOLECULE
2,4,5,6,7
 41 41 0 0 0
SMALL
GASTEIGER

@<TRIPOS>ATOM
      1 SI          1.1501    4.4990    2.4796 Si      1  UNL1        0.0000
      2 N           1.7292    3.1829    1.5216 N.3     1  UNL1        0.0000
      3 C           1.6580    3.5270    4.0348 C.3     1  UNL1        0.0000
      4 C           0.9237    2.4359    4.5953 C.2     1  UNL1        0.0000
      5 C           1.8417    1.5265    5.1853 C.2     1  UNL1        0.0000
      6 C           3.1527    2.0209    4.9610 C.2     1  UNL1        0.0000
      7 C           3.0393    3.2358    4.2445 C.2     1  UNL1        0.0000
      8 C          -0.5501    2.4162    4.8717 C.3     1  UNL1        0.0000
      9 H          -0.7336    2.8008    5.8791 H       1  UNL1        0.0000
     10 H          -0.9487    1.4037    4.8292 H       1  UNL1        0.0000
     11 H          -1.0899    3.0436    4.1698 H       1  UNL1        0.0000
     12 C           1.4354    0.4243    6.1216 C.3     1  UNL1        0.0000
     13 H           1.0426    0.8614    7.0435 H       1  UNL1        0.0000
     14 H           2.2750   -0.2136    6.3922 H       1  UNL1        0.0000
     15 H           0.6525   -0.2014    5.6943 H       1  UNL1        0.0000
     16 C           4.4395    1.4966    5.5348 C.3     1  UNL1        0.0000
     17 H           4.2868    0.5718    6.0873 H       1  UNL1        0.0000
     18 H           4.8580    2.2304    6.2274 H       1  UNL1        0.0000
     19 H           5.1771    1.3151    4.7511 H       1  UNL1        0.0000
     20 C           4.1808    4.1439    3.8914 C.3     1  UNL1        0.0000
     21 H           4.0483    5.1147    4.3721 H       1  UNL1        0.0000
     22 H           4.2375    4.3028    2.8139 H       1  UNL1        0.0000
     23 H           5.1277    3.7200    4.2207 H       1  UNL1        0.0000
     24 C           1.9721    6.2273    2.3131 C.3     1  UNL1        0.0000
     25 H           3.0357    6.1773    2.1132 H       1  UNL1        0.0000
     26 H           1.5098    6.7855    1.5048 H       1  UNL1        0.0000
     27 H           1.8326    6.8035    3.2222 H       1  UNL1        0.0000
     28 C          -0.7276    4.8832    2.3245 C.3     1  UNL1        0.0000
     29 H          -0.8958    5.6058    1.5330 H       1  UNL1        0.0000
     30 H          -1.1165    5.3162    3.2398 H       1  UNL1        0.0000
     31 H          -1.3150    4.0021    2.0884 H       1  UNL1        0.0000
     32 C           1.8748    3.1080    0.0859 C.3     1  UNL1        0.0000
     33 H           2.1531    2.0687   -0.1781 H       1  UNL1        0.0000
     34 C           3.0023    4.0285   -0.3998 C.3     1  UNL1        0.0000
     35 H           2.7474    5.0638   -0.1893 H       1  UNL1        0.0000
     36 H           3.9263    3.7769    0.1167 H       1  UNL1        0.0000
     37 H           3.1563    3.9082   -1.4696 H       1  UNL1        0.0000
     38 C           0.5696    3.4550   -0.6389 C.3     1  UNL1        0.0000
     39 H           0.6777    3.2981   -1.7097 H       1  UNL1        0.0000
     40 H           0.3191    4.4970   -0.4575 H       1  UNL1        0.0000
     41 H          -0.2420    2.8326   -0.2694 H       1  UNL1        0.0000
@<TRIPOS>BOND
     1    39    38    1
     2    37    34    1
     3    38    40    1
     4    38    41    1
     5    38    32    1
     6    34    35    1
     7    34    32    1
     8    34    36    1
     9    33    32    1
    10    32     2    1
    11    26    24    1
    12     2     1    1
    13    29    28    1
    14    31    28    1
    15    25    24    1
    16    24     1    1
    17    24    27    1
    18    28     1    1
    19    28    30    1
    20     1     3    1
    21    22    20    1
    22    20    23    1
    23    20     7    1
    24    20    21    1
    25     3     7    1
    26     3     4    1
    27    11     8    1
    28     7     6    2
    29     4     8    1
    30     4     5    2
    31    19    16    1
    32    10     8    1
    33     8     9    1
    34     6     5    1
    35     6    16    1
    36     5    12    1
    37    16    17    1
    38    16    18    1
    39    15    12    1
    40    12    14    1
    41    12    13    1
