@<TRIPOS>MOLECULE
2,3,4,5,6,7
 45 46 0 0 0
SMALL
GASTEIGER

@<TRIPOS>ATOM
      1 SI          2.6241    2.8847    3.6501 Si      1  UNL1        0.0000
      2 N           3.7483    1.5760    3.8016 N.3     1  UNL1        0.0000
      3 C           1.1825    1.6351    3.6785 C.3     1  UNL1        0.0000
      4 C           1.1186    0.5878    2.7014 C.2     1  UNL1        0.0000
      5 C           0.5495   -0.5656    3.3065 C.2     1  UNL1        0.0000
      6 C           0.2711   -0.2506    4.6614 C.2     1  UNL1        0.0000
      7 C           0.6532    1.0943    4.8852 C.2     1  UNL1        0.0000
      8 C           1.2363    0.7712    1.2184 C.3     1  UNL1        0.0000
      9 H           1.8399    1.6414    0.9817 H       1  UNL1        0.0000
     10 H           0.2381    0.9276    0.7990 H       1  UNL1        0.0000
     11 H           1.6672   -0.1041    0.7340 H       1  UNL1        0.0000
     12 C           0.0774   -1.7651    2.5353 C.3     1  UNL1        0.0000
     13 H          -0.2416   -2.5728    3.1930 H       1  UNL1        0.0000
     14 H           0.8553   -2.1398    1.8679 H       1  UNL1        0.0000
     15 H          -0.7796   -1.4849    1.9174 H       1  UNL1        0.0000
     16 C          -0.5476   -1.0567    5.6303 C.3     1  UNL1        0.0000
     17 H          -0.6059   -2.1062    5.3426 H       1  UNL1        0.0000
     18 H          -1.5696   -0.6677    5.6528 H       1  UNL1        0.0000
     19 H          -0.1464   -0.9851    6.6415 H       1  UNL1        0.0000
     20 C           0.2958    1.8591    6.1246 C.3     1  UNL1        0.0000
     21 H          -0.7505    1.6746    6.3781 H       1  UNL1        0.0000
     22 H           0.9022    1.5609    6.9807 H       1  UNL1        0.0000
     23 H           0.4268    2.9243    5.9617 H       1  UNL1        0.0000
     24 C           2.6219    4.1540    5.0888 C.3     1  UNL1        0.0000
     25 H           3.4253    4.8689    4.9435 H       1  UNL1        0.0000
     26 H           2.7757    3.6683    6.0474 H       1  UNL1        0.0000
     27 H           1.6951    4.7168    5.1352 H       1  UNL1        0.0000
     28 C           2.8015    3.9297    2.0522 C.3     1  UNL1        0.0000
     29 H           3.4329    4.7897    2.2457 H       1  UNL1        0.0000
     30 H           1.8393    4.2961    1.7129 H       1  UNL1        0.0000
     31 H           3.2573    3.3756    1.2394 H       1  UNL1        0.0000
     32 C           5.1558    1.6669    4.1232 C.3     1  UNL1        0.0000
     33 H           5.6686    0.7663    3.7399 H       1  UNL1        0.0000
     34 H           5.2885    1.6953    5.2208 H       1  UNL1        0.0000
     35 C           5.7855    2.8963    3.5236 C.ar    1  UNL1        0.0000
     36 C           6.1231    2.9305    2.1765 C.ar    1  UNL1        0.0000
     37 H           5.9873    2.0449    1.5729 H       1  UNL1        0.0000
     38 C           6.6372    4.0819    1.6084 C.ar    1  UNL1        0.0000
     39 H           6.8942    4.0972    0.5590 H       1  UNL1        0.0000
     40 C           6.8260    5.2144    2.3827 C.ar    1  UNL1        0.0000
     41 H           7.2250    6.1149    1.9390 H       1  UNL1        0.0000
     42 C           6.5095    5.1839    3.7299 C.ar    1  UNL1        0.0000
     43 H           6.6664    6.0610    4.3414 H       1  UNL1        0.0000
     44 C           5.9942    4.0310    4.2962 C.ar    1  UNL1        0.0000
     45 H           5.7560    4.0061    5.3497 H       1  UNL1        0.0000
@<TRIPOS>BOND
     1    39    38    1
     2    11     8    1
     3    10     8    1
     4     9     8    1
     5     8     4    1
     6    31    28    1
     7    37    36    1
     8    38    36   ar
     9    38    40   ar
    10    30    28    1
    11    14    12    1
    12    15    12    1
    13    41    40    1
    14    28    29    1
    15    28     1    1
    16    36    35   ar
    17    40    42   ar
    18    12    13    1
    19    12     5    1
    20     4     5    2
    21     4     3    1
    22     5     6    1
    23    35    32    1
    24    35    44   ar
    25     1     3    1
    26     1     2    1
    27     1    24    1
    28     3     7    1
    29    42    44   ar
    30    42    43    1
    31    33    32    1
    32     2    32    1
    33    32    34    1
    34    44    45    1
    35     6     7    2
    36     6    16    1
    37     7    20    1
    38    25    24    1
    39    24    27    1
    40    24    26    1
    41    17    16    1
    42    16    18    1
    43    16    19    1
    44    23    20    1
    45    20    21    1
    46    20    22    1
