@<TRIPOS>MOLECULE
2,4,9,34,35
 60 61 0 0 0
SMALL
GASTEIGER

@<TRIPOS>ATOM
      1 SI          1.7327   12.4657   14.0027 Si      1  UNL1        0.0000
      2 N           2.4634   12.4657   12.4292 N.pl3   1  UNL1        0.0000
      3 C           0.0336   12.4658   13.1197 C.3     1  UNL1        0.0000
      4 C          -0.4024   11.3208   12.3786 C.2     1  UNL1        0.0000
      5 C          -0.2819    9.8775   12.7721 C.3     1  UNL1        0.0000
      6 H           0.0818    9.7845   13.7908 H       1  UNL1        0.0000
      7 H           0.3933    9.3425   12.0986 H       1  UNL1        0.0000
      8 H          -1.2597    9.3963   12.7113 H       1  UNL1        0.0000
      9 C          -1.1172   11.7552   11.2318 C.2     1  UNL1        0.0000
     10 C          -1.8424   10.8508   10.2810 C.3     1  UNL1        0.0000
     11 H          -2.0730   11.3627    9.3481 H       1  UNL1        0.0000
     12 H          -2.7820   10.5150   10.7271 H       1  UNL1        0.0000
     13 H          -1.2394    9.9721   10.0505 H       1  UNL1        0.0000
     14 C           3.7412   12.4657   11.8577 C.ar    1  UNL1        0.0000
     15 C           4.3831   11.2476   11.5441 C.ar    1  UNL1        0.0000
     16 C           5.5944   11.2722   10.8698 C.ar    1  UNL1        0.0000
     17 H           7.1241   12.4658    9.9682 H       1  UNL1        0.0000
     18 C           6.1889   12.4658   10.5081 C.ar    1  UNL1        0.0000
     19 H           6.0849   10.3431   10.6242 H       1  UNL1        0.0000
     20 C           3.8191    9.9318   12.0326 C.3     1  UNL1        0.0000
     21 H           2.7651   10.0937   12.2989 H       1  UNL1        0.0000
     22 C           4.5994    9.5172   13.2858 C.3     1  UNL1        0.0000
     23 H           4.1726    8.6168   13.7232 H       1  UNL1        0.0000
     24 H           4.5837   10.3118   14.0272 H       1  UNL1        0.0000
     25 H           5.6365    9.3143   13.0268 H       1  UNL1        0.0000
     26 C           3.8810    8.8130   10.9916 C.3     1  UNL1        0.0000
     27 H           3.3408    7.9421   11.3578 H       1  UNL1        0.0000
     28 H           4.9068    8.5115   10.7951 H       1  UNL1        0.0000
     29 H           3.4263    9.1327   10.0586 H       1  UNL1        0.0000
     30 C           2.0307   10.9698   15.1635 C.3     1  UNL1        0.0000
     31 H           2.1345   10.0239   14.6462 H       1  UNL1        0.0000
     32 H           1.2129   10.8797   15.8720 H       1  UNL1        0.0000
     33 H           2.9357   11.1267   15.7415 H       1  UNL1        0.0000
     34 C          -0.4024   13.6107   12.3786 C.2     1  UNL1        0.0000
     35 C          -1.1172   13.1763   11.2317 C.2     1  UNL1        0.0000
     36 C          -0.2819   15.0540   12.7720 C.3     1  UNL1        0.0000
     37 H           0.0819   15.1470   13.7907 H       1  UNL1        0.0000
     38 H           0.3934   15.5890   12.0985 H       1  UNL1        0.0000
     39 H          -1.2597   15.5352   12.7112 H       1  UNL1        0.0000
     40 C          -1.8424   14.0807   10.2809 C.3     1  UNL1        0.0000
     41 H          -2.0729   13.5687    9.3481 H       1  UNL1        0.0000
     42 H          -2.7819   14.4164   10.7270 H       1  UNL1        0.0000
     43 H          -1.2393   14.9593   10.0504 H       1  UNL1        0.0000
     44 C           2.0307   13.9617   15.1635 C.3     1  UNL1        0.0000
     45 H           2.1345   14.9076   14.6462 H       1  UNL1        0.0000
     46 H           1.2129   14.0518   15.8720 H       1  UNL1        0.0000
     47 H           2.9356   13.8048   15.7415 H       1  UNL1        0.0000
     48 C           5.5944   13.6593   10.8698 C.ar    1  UNL1        0.0000
     49 C           4.3831   13.6839   11.5441 C.ar    1  UNL1        0.0000
     50 C           3.8191   14.9997   12.0327 C.3     1  UNL1        0.0000
     51 H           2.7651   14.8378   12.2990 H       1  UNL1        0.0000
     52 C           4.5994   15.4143   13.2858 C.3     1  UNL1        0.0000
     53 H           4.1726   16.3146   13.7233 H       1  UNL1        0.0000
     54 H           4.5838   14.6196   14.0272 H       1  UNL1        0.0000
     55 H           5.6365   15.6172   13.0269 H       1  UNL1        0.0000
     56 C           3.8810   16.1185   10.9916 C.3     1  UNL1        0.0000
     57 H           3.3407   16.9894   11.3579 H       1  UNL1        0.0000
     58 H           4.9068   16.4200   10.7951 H       1  UNL1        0.0000
     59 H           3.4263   15.7988   10.0587 H       1  UNL1        0.0000
     60 H           6.0849   14.5884   10.6242 H       1  UNL1        0.0000
@<TRIPOS>BOND
     1    41    40    1
     2    11    10    1
     3    17    18    1
     4    43    40    1
     5    13    10    1
     6    29    26    1
     7    59    56    1
     8    40    42    1
     9    40    35    1
    10    10    12    1
    11    10     9    1
    12    18    16   ar
    13    18    48   ar
    14    19    16    1
    15    60    48    1
    16    28    26    1
    17    58    56    1
    18    16    15   ar
    19    48    49   ar
    20    26    27    1
    21    26    20    1
    22    56    57    1
    23    56    50    1
    24    35     9    1
    25    35    34    2
    26     9     4    2
    27    15    14   ar
    28    15    20    1
    29    49    14   ar
    30    49    50    1
    31    14     2    1
    32    20    21    1
    33    20    22    1
    34    50    51    1
    35    50    52    1
    36    38    36    1
    37     7     5    1
    38    34    36    1
    39    34     3    1
    40     4     5    1
    41     4     3    1
    42     2     1    1
    43    39    36    1
    44     8     5    1
    45    36    37    1
    46     5     6    1
    47    25    22    1
    48    55    52    1
    49     3     1    1
    50    22    23    1
    51    22    24    1
    52    52    53    1
    53    52    54    1
    54     1    30    1
    55     1    44    1
    56    31    30    1
    57    45    44    1
    58    30    33    1
    59    30    32    1
    60    44    47    1
    61    44    46    1
