@<TRIPOS>MOLECULE
3,4,5,6,7,8
 35 35 0 0 0
SMALL
GASTEIGER

@<TRIPOS>ATOM
      1 SI          0.7587    6.2677    1.0829 Si      1  UNL1        0.0000
      2 SI          0.8512    1.4822    3.6800 Si      1  UNL1        0.0000
      3 N           1.2076    3.8212    2.2264 N.pl3   1  UNL1        0.0000
      4 C           1.8479    4.7731    1.5297 C.3     1  UNL1        0.0000
      5 C           3.2211    4.6523    1.2120 C.2     1  UNL1        0.0000
      6 C           3.9074    3.5048    1.5943 C.2     1  UNL1        0.0000
      7 C           3.2144    2.5162    2.3268 C.2     1  UNL1        0.0000
      8 C           1.8701    2.7143    2.6485 C.2     1  UNL1        0.0000
      9 C           1.5962    7.2557   -0.3171 C.3     1  UNL1        0.0000
     10 C           0.5898    7.3296    2.6629 C.3     1  UNL1        0.0000
     11 C          -0.9107    5.5443    0.5323 C.3     1  UNL1        0.0000
     12 C           1.4697    1.5925    5.4866 C.3     1  UNL1        0.0000
     13 C          -0.9752    1.9850    3.5280 C.3     1  UNL1        0.0000
     14 C           1.1709   -0.2542    2.9583 C.3     1  UNL1        0.0000
     15 H           3.7346    5.4681    0.7164 H       1  UNL1        0.0000
     16 H           4.9713    3.4015    1.4056 H       1  UNL1        0.0000
     17 H           3.7459    1.6518    2.7095 H       1  UNL1        0.0000
     18 H           2.5317    7.7095   -0.0021 H       1  UNL1        0.0000
     19 H           0.9483    8.0580   -0.6541 H       1  UNL1        0.0000
     20 H           1.8027    6.6216   -1.1746 H       1  UNL1        0.0000
     21 H           1.5456    7.7307    2.9888 H       1  UNL1        0.0000
     22 H           0.1776    6.7497    3.4831 H       1  UNL1        0.0000
     23 H          -0.0741    8.1695    2.4862 H       1  UNL1        0.0000
     24 H          -0.7929    4.9426   -0.3651 H       1  UNL1        0.0000
     25 H          -1.6369    6.3228    0.3213 H       1  UNL1        0.0000
     26 H          -1.3232    4.8998    1.3021 H       1  UNL1        0.0000
     27 H           2.5262    1.3536    5.5693 H       1  UNL1        0.0000
     28 H           0.9273    0.8931    6.1140 H       1  UNL1        0.0000
     29 H           1.3235    2.5858    5.9008 H       1  UNL1        0.0000
     30 H          -1.1329    3.0074    3.8566 H       1  UNL1        0.0000
     31 H          -1.6131    1.3401    4.1242 H       1  UNL1        0.0000
     32 H          -1.3037    1.9177    2.4954 H       1  UNL1        0.0000
     33 H           2.1877   -0.5913    3.1384 H       1  UNL1        0.0000
     34 H           1.0065   -0.2627    1.8836 H       1  UNL1        0.0000
     35 H           0.5052   -0.9879    3.4013 H       1  UNL1        0.0000
@<TRIPOS>BOND
     1    20     9    1
     2    19     9    1
     3    24    11    1
     4     9    18    1
     5     9     1    1
     6    25    11    1
     7    11     1    1
     8    11    26    1
     9    15     5    1
    10     1     4    1
    11     1    10    1
    12     5     4    1
    13     5     6    2
    14    16     6    1
    15     4     3    1
    16     6     7    1
    17    34    14    1
    18     3     8    1
    19     7     8    2
    20     7    17    1
    21    23    10    1
    22    32    13    1
    23     8     2    1
    24    10    21    1
    25    10    22    1
    26    14    33    1
    27    14    35    1
    28    14     2    1
    29    13     2    1
    30    13    30    1
    31    13    31    1
    32     2    12    1
    33    12    27    1
    34    12    29    1
    35    12    28    1
