@<TRIPOS>MOLECULE
2,3,4,5,6,7
 42 43 0 0 0
SMALL
GASTEIGER

@<TRIPOS>ATOM
      1 SI          7.2261   -0.7002    3.0324 Si      1  UNL1        0.0000
      2 N           6.7821    0.4370    4.2713 N.pl3   1  UNL1        0.0000
      3 C           7.7872    0.6503    1.8285 C.3     1  UNL1        0.0000
      4 C           9.0611    1.2756    1.8704 C.2     1  UNL1        0.0000
      5 C           8.9464    2.5983    1.3785 C.2     1  UNL1        0.0000
      6 C           7.5799    2.8178    1.0361 C.3     1  UNL1        0.0000
      7 C           6.8609    1.6232    1.3167 C.3     1  UNL1        0.0000
      8 C           5.4748    1.3387    0.8005 C.3     1  UNL1        0.0000
      9 H           5.5339    1.0182   -0.2439 H       1  UNL1        0.0000
     10 H           4.8472    2.2293    0.8367 H       1  UNL1        0.0000
     11 H           4.9954    0.5467    1.3683 H       1  UNL1        0.0000
     12 C           7.0613    3.9811    0.2341 C.3     1  UNL1        0.0000
     13 H           7.0129    3.7144   -0.8253 H       1  UNL1        0.0000
     14 H           7.7144    4.8456    0.3342 H       1  UNL1        0.0000
     15 H           6.0591    4.2674    0.5534 H       1  UNL1        0.0000
     16 C          10.0613    3.5345    0.9873 C.3     1  UNL1        0.0000
     17 H          11.0347    3.1378    1.2708 H       1  UNL1        0.0000
     18 H           9.9497    4.5205    1.4425 H       1  UNL1        0.0000
     19 H          10.0652    3.6715   -0.0964 H       1  UNL1        0.0000
     20 C          10.3460    0.5665    2.2037 C.3     1  UNL1        0.0000
     21 H          11.1956    1.0502    1.7226 H       1  UNL1        0.0000
     22 H          10.2984   -0.4585    1.8432 H       1  UNL1        0.0000
     23 H          10.5393    0.5295    3.2773 H       1  UNL1        0.0000
     24 C           8.5889   -1.9243    3.6002 C.3     1  UNL1        0.0000
     25 H           9.3834   -1.4303    4.1482 H       1  UNL1        0.0000
     26 H           9.0325   -2.4409    2.7562 H       1  UNL1        0.0000
     27 H           8.1640   -2.6779    4.2554 H       1  UNL1        0.0000
     28 C           5.8268   -1.8194    2.3413 C.3     1  UNL1        0.0000
     29 H           5.9300   -2.8333    2.7142 H       1  UNL1        0.0000
     30 H           5.8468   -1.8681    1.2580 H       1  UNL1        0.0000
     31 H           4.8467   -1.4623    2.6416 H       1  UNL1        0.0000
     32 C           6.0939    0.1949    5.4205 C.ar    1  UNL1        0.0000
     33 C           5.7624    1.2802    6.2605 C.ar    1  UNL1        0.0000
     34 H           6.0716    2.2800    5.9421 H       1  UNL1        0.0000
     35 C           5.0403    1.0956    7.4200 C.ar    1  UNL1        0.0000
     36 H           4.7745    1.9486    8.0296 H       1  UNL1        0.0000
     37 C           4.6371   -0.1736    7.8074 C.ar    1  UNL1        0.0000
     38 H           4.0707   -0.3157    8.7155 H       1  UNL1        0.0000
     39 C           4.9676   -1.2559    7.0059 C.ar    1  UNL1        0.0000
     40 H           4.6585   -2.2513    7.2956 H       1  UNL1        0.0000
     41 C           5.6786   -1.0829    5.8379 C.ar    1  UNL1        0.0000
     42 H           5.9197   -1.9323    5.2175 H       1  UNL1        0.0000
@<TRIPOS>BOND
     1    13    12    1
     2     9     8    1
     3    19    16    1
     4    12    14    1
     5    12    15    1
     6    12     6    1
     7     8    10    1
     8     8     7    1
     9     8    11    1
    10    16    17    1
    11    16     5    1
    12    16    18    1
    13     6     7    1
    14     6     5    1
    15    30    28    1
    16     7     3    1
    17     5     4    2
    18    21    20    1
    19     3     4    1
    20     3     1    1
    21    22    20    1
    22     4    20    1
    23    20    23    1
    24    28    31    1
    25    28    29    1
    26    28     1    1
    27    26    24    1
    28     1    24    1
    29     1     2    1
    30    24    25    1
    31    24    27    1
    32     2    32    1
    33    42    41    1
    34    32    41   ar
    35    32    33   ar
    36    41    39   ar
    37    34    33    1
    38    33    35   ar
    39    39    40    1
    40    39    37   ar
    41    35    37   ar
    42    35    36    1
    43    37    38    1
