@<TRIPOS>MOLECULE
2,3,4,5,6,7
 42 43 0 0 0
SMALL
GASTEIGER

@<TRIPOS>ATOM
      1 SI         14.7292    3.8489    6.6574 Si      1  UNL1        0.0000
      2 N          14.6319    4.9840    5.3497 N.pl3   1  UNL1        0.0000
      3 C          15.1378    5.1928    7.9263 C.2     1  UNL1        0.0000
      4 C          16.3883    5.8772    7.9716 C.2     1  UNL1        0.0000
      5 C          16.1726    7.1923    8.4617 C.2     1  UNL1        0.0000
      6 C          14.7827    7.3341    8.7218 C.2     1  UNL1        0.0000
      7 C          14.1480    6.1228    8.3637 C.3     1  UNL1        0.0000
      8 C          17.7423    5.2416    7.8117 C.3     1  UNL1        0.0000
      9 H          18.4914    5.9672    7.4949 H       1  UNL1        0.0000
     10 H          17.7151    4.4279    7.0929 H       1  UNL1        0.0000
     11 H          18.0733    4.8286    8.7689 H       1  UNL1        0.0000
     12 C          17.2396    8.1649    8.8902 C.3     1  UNL1        0.0000
     13 H          16.9511    9.1962    8.6825 H       1  UNL1        0.0000
     14 H          18.1823    7.9666    8.3821 H       1  UNL1        0.0000
     15 H          17.4207    8.0802    9.9652 H       1  UNL1        0.0000
     16 C          14.1290    8.4926    9.4240 C.3     1  UNL1        0.0000
     17 H          13.4050    9.0009    8.7822 H       1  UNL1        0.0000
     18 H          14.8746    9.2175    9.7414 H       1  UNL1        0.0000
     19 H          13.6047    8.1433   10.3161 H       1  UNL1        0.0000
     20 C          12.6855    5.8238    8.5548 C.3     1  UNL1        0.0000
     21 H          12.5599    4.8181    8.9512 H       1  UNL1        0.0000
     22 H          12.1303    5.8937    7.6155 H       1  UNL1        0.0000
     23 H          12.2403    6.5240    9.2601 H       1  UNL1        0.0000
     24 C          16.0726    2.4830    6.4937 C.3     1  UNL1        0.0000
     25 H          15.6180    1.5484    6.1820 H       1  UNL1        0.0000
     26 H          16.5797    2.2966    7.4341 H       1  UNL1        0.0000
     27 H          16.8226    2.7370    5.7500 H       1  UNL1        0.0000
     28 C          13.1183    2.8640    6.9830 C.3     1  UNL1        0.0000
     29 H          12.2355    3.4905    6.9310 H       1  UNL1        0.0000
     30 H          13.1388    2.3928    7.9600 H       1  UNL1        0.0000
     31 H          13.0067    2.0769    6.2438 H       1  UNL1        0.0000
     32 C          14.4822    4.3624    1.2232 C.ar    1  UNL1        0.0000
     33 H          14.4511    4.2165    0.1537 H       1  UNL1        0.0000
     34 C          14.5466    5.8306    3.1229 C.ar    1  UNL1        0.0000
     35 H          14.5532    6.8393    3.5501 H       1  UNL1        0.0000
     36 C          14.5074    5.6415    1.7582 C.ar    1  UNL1        0.0000
     37 H          14.4965    6.4966    1.0956 H       1  UNL1        0.0000
     38 C          14.4928    3.2753    2.0853 C.ar    1  UNL1        0.0000
     39 H          14.4677    2.2723    1.6805 H       1  UNL1        0.0000
     40 C          14.5352    3.4535    3.4495 C.ar    1  UNL1        0.0000
     41 H          14.5401    2.6003    4.1098 H       1  UNL1        0.0000
     42 C          14.5677    4.7411    4.0202 C.ar    1  UNL1        0.0000
@<TRIPOS>BOND
     1    33    32    1
     2    37    36    1
     3    32    36   ar
     4    32    38   ar
     5    39    38    1
     6    36    34   ar
     7    38    40   ar
     8    34    35    1
     9    34    42   ar
    10    40    42   ar
    11    40    41    1
    12    42     2    1
    13     2     1    1
    14    27    24    1
    15    25    24    1
    16    31    28    1
    17    24     1    1
    18    24    26    1
    19     1    28    1
    20     1     3    1
    21    29    28    1
    22    28    30    1
    23    10     8    1
    24     9     8    1
    25    22    20    1
    26     8     4    1
    27     8    11    1
    28     3     4    2
    29     3     7    1
    30     4     5    1
    31     7    20    1
    32     7     6    1
    33    14    12    1
    34     5     6    2
    35     5    12    1
    36    20    21    1
    37    20    23    1
    38    13    12    1
    39     6    16    1
    40    17    16    1
    41    12    15    1
    42    16    18    1
    43    16    19    1
