@<TRIPOS>MOLECULE
2,4,5,6,7
 44 44 0 0 0
SMALL
GASTEIGER

@<TRIPOS>ATOM
      1 SI          4.1673    3.1327   11.3335 Si      1  UNL1        0.0000
      2 N           4.0120    3.1061    9.6108 N.3     1  UNL1        0.0000
      3 C           2.9968    4.6166   11.5270 C.3     1  UNL1        0.0000
      4 C           3.3167    5.8299   10.8551 C.2     1  UNL1        0.0000
      5 C           1.5717    4.4901   11.4765 C.2     1  UNL1        0.0000
      6 C           2.1190    6.4467   10.4202 C.2     1  UNL1        0.0000
      7 C           1.0323    5.6204   10.8182 C.2     1  UNL1        0.0000
      8 C           4.9995    2.6250    8.6685 C.3     1  UNL1        0.0000
      9 C          -0.4073    6.0574   10.8540 C.3     1  UNL1        0.0000
     10 H          -0.5546    6.7608   11.6789 H       1  UNL1        0.0000
     11 H          -1.0804    5.2170   11.0189 H       1  UNL1        0.0000
     12 H          -0.7052    6.5651    9.9361 H       1  UNL1        0.0000
     13 C           0.7552    3.5328   12.3012 C.3     1  UNL1        0.0000
     14 H           0.4812    4.0144   13.2451 H       1  UNL1        0.0000
     15 H           1.3185    2.6358   12.5424 H       1  UNL1        0.0000
     16 H          -0.1747    3.2442   11.8070 H       1  UNL1        0.0000
     17 C           4.3362    2.3022    7.3204 C.3     1  UNL1        0.0000
     18 H           3.6035    1.5060    7.4423 H       1  UNL1        0.0000
     19 H           5.0847    1.9781    6.5989 H       1  UNL1        0.0000
     20 H           3.8383    3.1970    6.9481 H       1  UNL1        0.0000
     21 C           2.0198    7.8439    9.8808 C.3     1  UNL1        0.0000
     22 H           2.1898    8.5663   10.6842 H       1  UNL1        0.0000
     23 H           1.0350    8.0387    9.4586 H       1  UNL1        0.0000
     24 H           2.7734    8.0133    9.1116 H       1  UNL1        0.0000
     25 C           3.5809    1.4755   12.1254 C.3     1  UNL1        0.0000
     26 H           4.3730    0.7365   12.0551 H       1  UNL1        0.0000
     27 H           2.7080    1.0598   11.6301 H       1  UNL1        0.0000
     28 H           3.3527    1.5962   13.1795 H       1  UNL1        0.0000
     29 C           5.6946    1.3543    9.1813 C.3     1  UNL1        0.0000
     30 H           4.9523    0.5910    9.4024 H       1  UNL1        0.0000
     31 H           6.2522    1.5683   10.0877 H       1  UNL1        0.0000
     32 H           6.3827    0.9702    8.4313 H       1  UNL1        0.0000
     33 C           6.0519    3.7243    8.4283 C.3     1  UNL1        0.0000
     34 H           6.6146    3.9073    9.3394 H       1  UNL1        0.0000
     35 H           5.5392    4.6425    8.1391 H       1  UNL1        0.0000
     36 H           6.7462    3.4298    7.6435 H       1  UNL1        0.0000
     37 C           4.6694    6.4555   10.6906 C.3     1  UNL1        0.0000
     38 H           5.4433    5.8269   11.1199 H       1  UNL1        0.0000
     39 H           4.6976    7.4255   11.1943 H       1  UNL1        0.0000
     40 H           4.8838    6.6186    9.6317 H       1  UNL1        0.0000
     41 C           5.8640    3.4157   12.2031 C.3     1  UNL1        0.0000
     42 H           6.3084    2.4633   12.4744 H       1  UNL1        0.0000
     43 H           5.7459    3.9888   13.1176 H       1  UNL1        0.0000
     44 H           6.5803    3.9398   11.5795 H       1  UNL1        0.0000
@<TRIPOS>BOND
     1    19    17    1
     2    20    17    1
     3    17    18    1
     4    17     8    1
     5    36    33    1
     6    35    33    1
     7    33     8    1
     8    33    34    1
     9    32    29    1
    10     8    29    1
    11     8     2    1
    12    24    21    1
    13    29    30    1
    14    29    31    1
    15    23    21    1
    16     2     1    1
    17    40    37    1
    18    21     6    1
    19    21    22    1
    20    12     9    1
    21     6     7    1
    22     6     4    2
    23    37     4    1
    24    37    38    1
    25    37    39    1
    26     7     9    1
    27     7     5    2
    28     9    11    1
    29     9    10    1
    30     4     3    1
    31     1     3    1
    32     1    25    1
    33     1    41    1
    34     5     3    1
    35     5    13    1
    36    44    41    1
    37    27    25    1
    38    16    13    1
    39    26    25    1
    40    25    28    1
    41    41    42    1
    42    41    43    1
    43    13    15    1
    44    13    14    1
