@<TRIPOS>MOLECULE
2,4,5,26,27
 44 44 0 0 0
SMALL
GASTEIGER

@<TRIPOS>ATOM
      1 SI          1.2061    3.3664    7.2381 Si      1  UNL1        0.0000
      2 N           2.8674    3.3643    6.7440 N.3     1  UNL1        0.0000
      3 C           1.6770    3.3656    9.0721 C.3     1  UNL1        0.0000
      4 C           2.2763    4.5083    9.6788 C.3     1  UNL1        0.0000
      5 C           3.1779    4.0745   10.6770 C.2     1  UNL1        0.0000
      6 C           1.9330    5.9384    9.3652 C.3     1  UNL1        0.0000
      7 H           0.8576    6.0459    9.2326 H       1  UNL1        0.0000
      8 H           2.4249    6.2709    8.4444 H       1  UNL1        0.0000
      9 H           2.2407    6.5983   10.1754 H       1  UNL1        0.0000
     10 C           3.8698    4.9256   11.7036 C.3     1  UNL1        0.0000
     11 H           3.2799    4.9582   12.6236 H       1  UNL1        0.0000
     12 H           4.0034    5.9476   11.3516 H       1  UNL1        0.0000
     13 H           4.8500    4.5195   11.9554 H       1  UNL1        0.0000
     14 C           0.1373    1.8522    6.7192 C.3     1  UNL1        0.0000
     15 H          -0.3604    2.0459    5.7747 H       1  UNL1        0.0000
     16 H          -0.6369    1.6467    7.4512 H       1  UNL1        0.0000
     17 H           0.7306    0.9514    6.6003 H       1  UNL1        0.0000
     18 C           3.3793    3.3630    5.3859 C.3     1  UNL1        0.0000
     19 C           4.2423    4.6180    5.1631 C.3     1  UNL1        0.0000
     20 H           5.1166    4.5822    5.8103 H       1  UNL1        0.0000
     21 H           3.6580    5.5079    5.3970 H       1  UNL1        0.0000
     22 H           4.5712    4.6767    4.1273 H       1  UNL1        0.0000
     23 C           2.2558    3.3617    4.3396 C.3     1  UNL1        0.0000
     24 H           1.6352    4.2451    4.4522 H       1  UNL1        0.0000
     25 H           2.6801    3.3608    3.3377 H       1  UNL1        0.0000
     26 C           2.2757    2.2219    9.6775 C.3     1  UNL1        0.0000
     27 C           3.1774    2.6539   10.6763 C.2     1  UNL1        0.0000
     28 C           1.9322    0.7927    9.3613 C.3     1  UNL1        0.0000
     29 H           0.8564    0.6839    9.2319 H       1  UNL1        0.0000
     30 H           2.4210    0.4624    8.4378 H       1  UNL1        0.0000
     31 H           2.2429    0.1299   10.1682 H       1  UNL1        0.0000
     32 C           3.8685    1.8014   11.7023 C.3     1  UNL1        0.0000
     33 H           3.2768    1.7659   12.6211 H       1  UNL1        0.0000
     34 H           4.0041    0.7803   11.3482 H       1  UNL1        0.0000
     35 H           4.8476    2.2082   11.9568 H       1  UNL1        0.0000
     36 C           0.1419    4.8835    6.7185 C.3     1  UNL1        0.0000
     37 H          -0.3549    4.6915    5.7731 H       1  UNL1        0.0000
     38 H          -0.6330    5.0907    7.4493 H       1  UNL1        0.0000
     39 H           0.7376    5.7829    6.6007 H       1  UNL1        0.0000
     40 C           4.2426    2.1077    5.1656 C.3     1  UNL1        0.0000
     41 H           5.1172    2.1452    5.8124 H       1  UNL1        0.0000
     42 H           3.6586    1.2181    5.4018 H       1  UNL1        0.0000
     43 H           4.5710    2.0467    4.1299 H       1  UNL1        0.0000
     44 H           1.6355    2.4784    4.4540 H       1  UNL1        0.0000
@<TRIPOS>BOND
     1    25    23    1
     2    22    19    1
     3    43    40    1
     4    23    24    1
     5    23    44    1
     6    23    18    1
     7    19    18    1
     8    19    21    1
     9    19    20    1
    10    40    18    1
    11    40    42    1
    12    40    41    1
    13    18     2    1
    14    37    36    1
    15    15    14    1
    16    17    14    1
    17    39    36    1
    18    36     1    1
    19    36    38    1
    20    14     1    1
    21    14    16    1
    22     2     1    1
    23     1     3    1
    24    30    28    1
    25     8     6    1
    26     3    26    1
    27     3     4    1
    28    29    28    1
    29     7     6    1
    30    28    26    1
    31    28    31    1
    32     6     4    1
    33     6     9    1
    34    26    27    1
    35     4     5    1
    36    27     5    2
    37    27    32    1
    38     5    10    1
    39    34    32    1
    40    12    10    1
    41    32    35    1
    42    32    33    1
    43    10    13    1
    44    10    11    1
