@<TRIPOS>MOLECULE
2,3,8,13,18
 44 44 0 0 0
SMALL
GASTEIGER

@<TRIPOS>ATOM
      1 SI          7.5416   11.0144   -0.5919 Si      1  UNL1        0.0000
      2 N           8.4757   10.9971   -2.0455 N.3     1  UNL1        0.0000
      3 C           5.3530   12.0426   -2.2556 C.2     1  UNL1        0.0000
      4 C           5.2698   13.4666   -1.7779 C.3     1  UNL1        0.0000
      5 H           6.0515   13.6948   -1.0619 H       1  UNL1        0.0000
      6 H           4.3088   13.6226   -1.2799 H       1  UNL1        0.0000
      7 H           5.3247   14.1757   -2.6031 H       1  UNL1        0.0000
      8 C           4.5874   11.5443   -3.3429 C.2     1  UNL1        0.0000
      9 C           3.6535   12.3600   -4.1929 C.3     1  UNL1        0.0000
     10 H           4.0554   13.3531   -4.3874 H       1  UNL1        0.0000
     11 H           2.6938   12.4807   -3.6840 H       1  UNL1        0.0000
     12 H           3.4631   11.8763   -5.1492 H       1  UNL1        0.0000
     13 C           4.6375   10.1212   -3.2987 C.2     1  UNL1        0.0000
     14 C           3.7274    9.1872   -4.0464 C.3     1  UNL1        0.0000
     15 H           4.2268    8.2545   -4.3042 H       1  UNL1        0.0000
     16 H           3.3539    9.6418   -4.9608 H       1  UNL1        0.0000
     17 H           2.8646    8.9406   -3.4224 H       1  UNL1        0.0000
     18 C           5.4447    9.7478   -2.1935 C.2     1  UNL1        0.0000
     19 C           5.4925    8.3446   -1.6555 C.3     1  UNL1        0.0000
     20 H           6.3104    8.2104   -0.9565 H       1  UNL1        0.0000
     21 H           5.5828    7.6112   -2.4560 H       1  UNL1        0.0000
     22 H           4.5619    8.1302   -1.1227 H       1  UNL1        0.0000
     23 C           5.8793   10.9320   -1.5146 C.3     1  UNL1        0.0000
     24 C           7.8162    9.5705    0.6466 C.3     1  UNL1        0.0000
     25 H           6.9098    9.3510    1.2008 H       1  UNL1        0.0000
     26 H           8.5746    9.8468    1.3724 H       1  UNL1        0.0000
     27 H           8.1485    8.6553    0.1680 H       1  UNL1        0.0000
     28 C           7.7168   12.5549    0.5462 C.3     1  UNL1        0.0000
     29 H           6.8006   12.7439    1.0955 H       1  UNL1        0.0000
     30 H           7.9789   13.4584    0.0058 H       1  UNL1        0.0000
     31 H           8.4976   12.3835    1.2805 H       1  UNL1        0.0000
     32 C           9.9306   11.0314   -2.1577 C.3     1  UNL1        0.0000
     33 C          10.5948    9.8207   -1.4759 C.3     1  UNL1        0.0000
     34 H          11.6722    9.8585   -1.6206 H       1  UNL1        0.0000
     35 H          10.2230    8.8868   -1.8807 H       1  UNL1        0.0000
     36 H          10.3871    9.8419   -0.4106 H       1  UNL1        0.0000
     37 C          10.5373   12.2861   -1.5028 C.3     1  UNL1        0.0000
     38 H          11.6154   12.2949   -1.6467 H       1  UNL1        0.0000
     39 H          10.3298   12.2789   -0.4373 H       1  UNL1        0.0000
     40 H          10.1235   13.1929   -1.9276 H       1  UNL1        0.0000
     41 C          10.2790   11.0219   -3.6566 C.3     1  UNL1        0.0000
     42 H          11.3576   11.0525   -3.8005 H       1  UNL1        0.0000
     43 H           9.8378   11.8881   -4.1532 H       1  UNL1        0.0000
     44 H           9.8910   10.1174   -4.1278 H       1  UNL1        0.0000
@<TRIPOS>BOND
     1    12     9    1
     2    16    14    1
     3    10     9    1
     4    15    14    1
     5     9    11    1
     6     9     8    1
     7    43    41    1
     8    44    41    1
     9    14    17    1
    10    14    13    1
    11    42    41    1
    12    41    32    1
    13     8    13    1
    14     8     3    2
    15    13    18    2
    16     7     4    1
    17    21    19    1
    18     3     4    1
    19     3    23    1
    20    18    19    1
    21    18    23    1
    22    32     2    1
    23    32    37    1
    24    32    33    1
    25     2     1    1
    26    40    37    1
    27    35    33    1
    28     4     6    1
    29     4     5    1
    30    19    22    1
    31    19    20    1
    32    38    37    1
    33    34    33    1
    34    23     1    1
    35    37    39    1
    36    33    36    1
    37     1    28    1
    38     1    24    1
    39    30    28    1
    40    27    24    1
    41    28    29    1
    42    28    31    1
    43    24    25    1
    44    24    26    1
