@<TRIPOS>MOLECULE
2,3,8,13,18,23
 44 44 0 0 0
SMALL
GASTEIGER

@<TRIPOS>ATOM
      1 SI          7.1406    2.0873    2.0666 Si      1  UNL1        0.0000
      2 N           6.5974    2.4446    3.6794 N.3     1  UNL1        0.0000
      3 C           7.0592    4.9512    1.5539 C.2     1  UNL1        0.0000
      4 C           5.9224    4.9985    0.5750 C.3     1  UNL1        0.0000
      5 H           5.1616    4.2528    0.7939 H       1  UNL1        0.0000
      6 H           6.2973    4.8071   -0.4335 H       1  UNL1        0.0000
      7 H           5.4473    5.9771    0.5762 H       1  UNL1        0.0000
      8 C           7.6563    6.0915    2.1488 C.2     1  UNL1        0.0000
      9 C           7.2652    7.5150    1.8720 C.3     1  UNL1        0.0000
     10 H           6.2261    7.6998    2.1406 H       1  UNL1        0.0000
     11 H           7.3817    7.7287    0.8066 H       1  UNL1        0.0000
     12 H           7.8930    8.2126    2.4230 H       1  UNL1        0.0000
     13 C           8.8232    5.6719    2.8380 C.2     1  UNL1        0.0000
     14 C           9.8609    6.6180    3.3822 C.3     1  UNL1        0.0000
     15 H          10.7279    6.0834    3.7666 H       1  UNL1        0.0000
     16 H           9.4667    7.2480    4.1826 H       1  UNL1        0.0000
     17 H          10.2113    7.2785    2.5851 H       1  UNL1        0.0000
     18 C           8.9360    4.2678    2.6726 C.2     1  UNL1        0.0000
     19 C          10.1185    3.4159    3.0463 C.3     1  UNL1        0.0000
     20 H           9.8273    2.5572    3.6538 H       1  UNL1        0.0000
     21 H          10.8678    3.9831    3.5971 H       1  UNL1        0.0000
     22 H          10.5919    3.0329    2.1398 H       1  UNL1        0.0000
     23 C           7.8631    3.8187    1.8362 C.3     1  UNL1        0.0000
     24 C           8.4466    0.6962    1.7967 C.3     1  UNL1        0.0000
     25 H           8.9186    0.8090    0.8257 H       1  UNL1        0.0000
     26 H           7.9672   -0.2776    1.8071 H       1  UNL1        0.0000
     27 H           9.2353    0.6783    2.5403 H       1  UNL1        0.0000
     28 C           5.7858    1.6029    0.7907 C.3     1  UNL1        0.0000
     29 H           6.0842    1.8882   -0.2125 H       1  UNL1        0.0000
     30 H           4.8256    2.0648    0.9925 H       1  UNL1        0.0000
     31 H           5.6371    0.5279    0.7893 H       1  UNL1        0.0000
     32 C           6.1936    1.4277    4.6390 C.3     1  UNL1        0.0000
     33 C           5.2674    2.0408    5.7040 C.3     1  UNL1        0.0000
     34 H           5.2853    1.4464    6.6160 H       1  UNL1        0.0000
     35 H           4.2433    2.0779    5.3430 H       1  UNL1        0.0000
     36 H           5.6087    3.0561    5.9141 H       1  UNL1        0.0000
     37 C           5.4478    0.2642    3.9654 C.3     1  UNL1        0.0000
     38 H           5.0459   -0.4053    4.7230 H       1  UNL1        0.0000
     39 H           6.1192   -0.3001    3.3257 H       1  UNL1        0.0000
     40 H           4.6288    0.6427    3.3614 H       1  UNL1        0.0000
     41 C           7.4368    0.8430    5.3409 C.3     1  UNL1        0.0000
     42 H           7.1494    0.0361    6.0120 H       1  UNL1        0.0000
     43 H           7.9427    1.6138    5.9196 H       1  UNL1        0.0000
     44 H           8.1272    0.4472    4.6007 H       1  UNL1        0.0000
@<TRIPOS>BOND
     1     6     4    1
     2    29    28    1
     3     4     7    1
     4     4     5    1
     5     4     3    1
     6    31    28    1
     7    28    30    1
     8    28     1    1
     9    11     9    1
    10    25    24    1
    11     3    23    1
    12     3     8    2
    13    24    26    1
    14    24     1    1
    15    24    27    1
    16    23     1    1
    17    23    18    1
    18     9    10    1
    19     9     8    1
    20     9    12    1
    21     1     2    1
    22    22    19    1
    23     8    13    1
    24    17    14    1
    25    18    13    2
    26    18    19    1
    27    13    14    1
    28    19    21    1
    29    19    20    1
    30    39    37    1
    31    40    37    1
    32    14    15    1
    33    14    16    1
    34     2    32    1
    35    37    32    1
    36    37    38    1
    37    44    41    1
    38    32    41    1
    39    32    33    1
    40    41    43    1
    41    41    42    1
    42    35    33    1
    43    33    36    1
    44    33    34    1
