@<TRIPOS>MOLECULE
2,3,8,13,18,23
 44 44 0 0 0
SMALL
GASTEIGER

@<TRIPOS>ATOM
      1 SI         19.9517    6.5191   18.4223 Si      1  UNL1        0.0000
      2 N          21.3311    7.0974   17.5567 N.3     1  UNL1        0.0000
      3 C          20.5174    8.8141   20.0874 C.2     1  UNL1        0.0000
      4 C          19.5076    9.7227   19.4443 C.3     1  UNL1        0.0000
      5 H          18.5014    9.4495   19.7658 H       1  UNL1        0.0000
      6 H          19.5447    9.6473   18.3570 H       1  UNL1        0.0000
      7 H          19.6781   10.7606   19.7264 H       1  UNL1        0.0000
      8 C          21.5407    9.2138   20.9765 C.3     1  UNL1        0.0000
      9 C          21.7940   10.6119   21.4670 C.3     1  UNL1        0.0000
     10 H          21.1568   10.8339   22.3275 H       1  UNL1        0.0000
     11 H          21.5796   11.3512   20.6947 H       1  UNL1        0.0000
     12 H          22.8300   10.7392   21.7806 H       1  UNL1        0.0000
     13 C          22.1986    8.0479   21.4328 C.2     1  UNL1        0.0000
     14 C          23.2148    7.9636   22.5368 C.3     1  UNL1        0.0000
     15 H          22.7616    7.5157   23.4250 H       1  UNL1        0.0000
     16 H          23.5852    8.9487   22.8143 H       1  UNL1        0.0000
     17 H          24.0672    7.3441   22.2534 H       1  UNL1        0.0000
     18 C          21.5706    6.9261   20.8316 C.2     1  UNL1        0.0000
     19 C          21.7984    5.5102   21.2764 C.3     1  UNL1        0.0000
     20 H          21.2251    5.3162   22.1883 H       1  UNL1        0.0000
     21 H          22.8483    5.3279   21.5041 H       1  UNL1        0.0000
     22 H          21.4747    4.8010   20.5204 H       1  UNL1        0.0000
     23 C          20.4931    7.3900   20.0175 C.2     1  UNL1        0.0000
     24 C          18.1974    7.0649   17.8404 C.3     1  UNL1        0.0000
     25 H          17.7821    6.3394   17.1484 H       1  UNL1        0.0000
     26 H          18.2000    8.0266   17.3406 H       1  UNL1        0.0000
     27 H          17.5151    7.1323   18.6815 H       1  UNL1        0.0000
     28 C          19.7566    4.6062   18.5593 C.3     1  UNL1        0.0000
     29 H          19.2014    4.2271   17.7066 H       1  UNL1        0.0000
     30 H          19.2042    4.3261   19.4505 H       1  UNL1        0.0000
     31 H          20.7123    4.0919   18.5788 H       1  UNL1        0.0000
     32 C          21.6454    6.8597   16.1648 C.3     1  UNL1        0.0000
     33 C          20.4450    7.1953   15.2633 C.3     1  UNL1        0.0000
     34 H          20.1090    8.2099   15.4653 H       1  UNL1        0.0000
     35 H          19.6244    6.5133   15.4619 H       1  UNL1        0.0000
     36 H          20.7212    7.1164   14.2141 H       1  UNL1        0.0000
     37 C          22.0379    5.3875   15.9398 C.3     1  UNL1        0.0000
     38 H          22.8790    5.1334   16.5812 H       1  UNL1        0.0000
     39 H          22.3190    5.2189   14.9023 H       1  UNL1        0.0000
     40 H          21.2022    4.7396   16.1858 H       1  UNL1        0.0000
     41 C          22.8279    7.7441   15.7295 C.3     1  UNL1        0.0000
     42 H          22.5376    8.7934   15.7607 H       1  UNL1        0.0000
     43 H          23.1274    7.4954   14.7122 H       1  UNL1        0.0000
     44 H          23.6731    7.5858   16.4021 H       1  UNL1        0.0000
@<TRIPOS>BOND
     1    36    33    1
     2    43    41    1
     3    39    37    1
     4    33    35    1
     5    33    34    1
     6    33    32    1
     7    41    42    1
     8    41    32    1
     9    41    44    1
    10    37    32    1
    11    37    40    1
    12    37    38    1
    13    32     2    1
    14    25    24    1
    15    26    24    1
    16     2     1    1
    17    29    28    1
    18    24     1    1
    19    24    27    1
    20     6     4    1
    21     1    28    1
    22     1    23    1
    23    28    31    1
    24    28    30    1
    25     4     7    1
    26     4     5    1
    27     4     3    1
    28    23     3    2
    29    23    18    1
    30     3     8    1
    31    22    19    1
    32    11     9    1
    33    18    19    1
    34    18    13    2
    35     8    13    1
    36     8     9    1
    37    19    21    1
    38    19    20    1
    39    13    14    1
    40     9    12    1
    41     9    10    1
    42    17    14    1
    43    14    16    1
    44    14    15    1
