@<TRIPOS>MOLECULE
2,3,8,13,18,23
 44 44 0 0 0
SMALL
GASTEIGER

@<TRIPOS>ATOM
      1 SI         10.1257   11.3667   19.4859 Si      1  UNL1        0.0000
      2 N           9.8766    9.9320   18.5668 N.3     1  UNL1        0.0000
      3 C           8.8786    9.8193   21.5891 C.2     1  UNL1        0.0000
      4 C          10.1817    9.3583   22.1892 C.3     1  UNL1        0.0000
      5 H          10.7154   10.2106   22.6089 H       1  UNL1        0.0000
      6 H          10.8318    8.8912   21.4457 H       1  UNL1        0.0000
      7 H          10.0106    8.6501   22.9983 H       1  UNL1        0.0000
      8 C           7.5796    9.3728   21.9421 C.3     1  UNL1        0.0000
      9 C           7.1992    8.3460   22.9742 C.3     1  UNL1        0.0000
     10 H           6.7116    8.8279   23.8242 H       1  UNL1        0.0000
     11 H           8.0687    7.8105   23.3466 H       1  UNL1        0.0000
     12 H           6.4987    7.6175   22.5628 H       1  UNL1        0.0000
     13 C           6.6432   10.2208   21.2977 C.2     1  UNL1        0.0000
     14 C           5.1622   10.2017   21.5447 C.3     1  UNL1        0.0000
     15 H           4.9240   10.7035   22.4859 H       1  UNL1        0.0000
     16 H           4.7890    9.1806   21.6088 H       1  UNL1        0.0000
     17 H           4.6266   10.7169   20.7500 H       1  UNL1        0.0000
     18 C           7.3530   11.1678   20.5340 C.2     1  UNL1        0.0000
     19 C           6.7197   12.3559   19.8678 C.3     1  UNL1        0.0000
     20 H           6.3189   13.0384   20.6216 H       1  UNL1        0.0000
     21 H           5.8899   12.0606   19.2250 H       1  UNL1        0.0000
     22 H           7.4473   12.9003   19.2763 H       1  UNL1        0.0000
     23 C           8.7473   10.9567   20.7228 C.2     1  UNL1        0.0000
     24 C          11.8119   11.6519   20.3713 C.3     1  UNL1        0.0000
     25 H          12.4931   12.1834   19.7143 H       1  UNL1        0.0000
     26 H          12.2996   10.7302   20.6674 H       1  UNL1        0.0000
     27 H          11.6895   12.2597   21.2618 H       1  UNL1        0.0000
     28 C           9.9208   13.0138   18.5135 C.3     1  UNL1        0.0000
     29 H          10.8476   13.2559   18.0035 H       1  UNL1        0.0000
     30 H           9.6979   13.8403   19.1800 H       1  UNL1        0.0000
     31 H           9.1424   12.9665   17.7598 H       1  UNL1        0.0000
     32 C          10.8226    9.3023   17.6628 C.3     1  UNL1        0.0000
     33 C          11.7455   10.3189   16.9769 C.3     1  UNL1        0.0000
     34 H          11.1518   11.0826   16.4826 H       1  UNL1        0.0000
     35 H          12.3709    9.8236   16.2372 H       1  UNL1        0.0000
     36 H          12.3843   10.8006   17.7098 H       1  UNL1        0.0000
     37 C          11.6877    8.2949   18.4465 C.3     1  UNL1        0.0000
     38 H          11.0419    7.5626   18.9320 H       1  UNL1        0.0000
     39 H          12.2619    8.8198   19.2057 H       1  UNL1        0.0000
     40 H          12.3798    7.7781   17.7847 H       1  UNL1        0.0000
     41 C          10.0431    8.5393   16.5765 C.3     1  UNL1        0.0000
     42 H           9.2544    7.9474   17.0501 H       1  UNL1        0.0000
     43 H          10.7084    7.8804   16.0206 H       1  UNL1        0.0000
     44 H           9.6010    9.2431   15.8747 H       1  UNL1        0.0000
@<TRIPOS>BOND
     1    44    41    1
     2    43    41    1
     3    35    33    1
     4    34    33    1
     5    41    42    1
     6    41    32    1
     7    33    32    1
     8    33    36    1
     9    32    37    1
    10    32     2    1
    11    31    28    1
    12    40    37    1
    13    29    28    1
    14    37    38    1
    15    37    39    1
    16    28    30    1
    17    28     1    1
    18     2     1    1
    19    21    19    1
    20    22    19    1
    21     1    24    1
    22     1    23    1
    23    25    24    1
    24    19    18    1
    25    19    20    1
    26    24    26    1
    27    24    27    1
    28    18    23    1
    29    18    13    2
    30    23     3    2
    31    17    14    1
    32    13    14    1
    33    13     8    1
    34     6     4    1
    35    14    16    1
    36    14    15    1
    37     3     8    1
    38     3     4    1
    39     8     9    1
    40     4     5    1
    41     4     7    1
    42    12     9    1
    43     9    11    1
    44     9    10    1
