@<TRIPOS>MOLECULE
2,3,8,13,18,23
 44 44 0 0 0
SMALL
GASTEIGER

@<TRIPOS>ATOM
      1 SI          6.2841    3.6643    0.6053 Si      1  UNL1        0.0000
      2 N           5.3545    3.6851    2.0535 N.3     1  UNL1        0.0000
      3 C           8.4027    4.9290    2.1850 C.2     1  UNL1        0.0000
      4 C           8.3318    6.3386    1.6642 C.3     1  UNL1        0.0000
      5 H           8.2304    7.0608    2.4750 H       1  UNL1        0.0000
      6 H           7.5112    6.4666    0.9657 H       1  UNL1        0.0000
      7 H           9.2589    6.5754    1.1335 H       1  UNL1        0.0000
      8 C           9.1986    4.5577    3.2990 C.2     1  UNL1        0.0000
      9 C          10.0877    5.4962    4.0691 C.3     1  UNL1        0.0000
     10 H          10.9476    5.7736    3.4529 H       1  UNL1        0.0000
     11 H          10.4695    5.0305    4.9758 H       1  UNL1        0.0000
     12 H           9.5684    6.4146    4.3438 H       1  UNL1        0.0000
     13 C           9.2517    3.1314    3.3401 C.2     1  UNL1        0.0000
     14 C          10.1570    2.3125    4.2204 C.3     1  UNL1        0.0000
     15 H          11.1362    2.1949    3.7480 H       1  UNL1        0.0000
     16 H           9.7495    1.3169    4.3952 H       1  UNL1        0.0000
     17 H          10.3112    2.7922    5.1868 H       1  UNL1        0.0000
     18 C           8.5005    2.6370    2.2417 C.2     1  UNL1        0.0000
     19 C           8.5637    1.2069    1.7775 C.3     1  UNL1        0.0000
     20 H           9.5231    1.0315    1.2816 H       1  UNL1        0.0000
     21 H           7.7792    0.9845    1.0616 H       1  UNL1        0.0000
     22 H           8.4984    0.5061    2.6105 H       1  UNL1        0.0000
     23 C           7.9665    3.7459    1.5057 C.3     1  UNL1        0.0000
     24 C           6.1064    2.1209   -0.5398 C.3     1  UNL1        0.0000
     25 H           5.3178    2.2874   -1.2671 H       1  UNL1        0.0000
     26 H           5.8509    1.2180    0.0058 H       1  UNL1        0.0000
     27 H           7.0174    1.9313   -1.0978 H       1  UNL1        0.0000
     28 C           6.0124    5.1071   -0.6462 C.3     1  UNL1        0.0000
     29 H           5.2587    4.8285   -1.3761 H       1  UNL1        0.0000
     30 H           6.9194    5.3342   -1.1965 H       1  UNL1        0.0000
     31 H           5.6718    6.0202   -0.1684 H       1  UNL1        0.0000
     32 C           3.9047    3.6480    2.1829 C.3     1  UNL1        0.0000
     33 C           3.2911    2.3886    1.5395 C.3     1  UNL1        0.0000
     34 H           3.7179    1.4841    1.9582 H       1  UNL1        0.0000
     35 H           3.4818    2.3963    0.4707 H       1  UNL1        0.0000
     36 H           2.2153    2.3740    1.7002 H       1  UNL1        0.0000
     37 C           3.2275    4.8561    1.5056 C.3     1  UNL1        0.0000
     38 H           3.6023    5.7923    1.9040 H       1  UNL1        0.0000
     39 H           2.1515    4.8162    1.6610 H       1  UNL1        0.0000
     40 H           3.4247    4.8324    0.4381 H       1  UNL1        0.0000
     41 C           3.5718    3.6603    3.6894 C.3     1  UNL1        0.0000
     42 H           4.0226    2.7939    4.1835 H       1  UNL1        0.0000
     43 H           2.4940    3.6275    3.8443 H       1  UNL1        0.0000
     44 H           3.9645    4.5696    4.1538 H       1  UNL1        0.0000
@<TRIPOS>BOND
     1    29    28    1
     2    25    24    1
     3    30    28    1
     4    27    24    1
     5    28    31    1
     6    28     1    1
     7    24    26    1
     8    24     1    1
     9    40    37    1
    10    35    33    1
    11     1    23    1
    12     1     2    1
    13     6     4    1
    14    21    19    1
    15     7     4    1
    16    20    19    1
    17    37    39    1
    18    37    38    1
    19    37    32    1
    20    23     3    1
    21    23    18    1
    22    33    36    1
    23    33    34    1
    24    33    32    1
    25     4     3    1
    26     4     5    1
    27    19    18    1
    28    19    22    1
    29     2    32    1
    30    32    41    1
    31     3     8    2
    32    18    13    2
    33     8    13    1
    34     8     9    1
    35    13    14    1
    36    10     9    1
    37    41    43    1
    38    41    44    1
    39    41    42    1
    40    15    14    1
    41     9    12    1
    42     9    11    1
    43    14    16    1
    44    14    17    1
