@<TRIPOS>MOLECULE
2,3,8,13,18,23
 44 44 0 0 0
SMALL
GASTEIGER

@<TRIPOS>ATOM
      1 SI         -4.6890    9.8886   16.7550 Si      1  UNL1        0.0000
      2 N          -3.8233   11.3026   16.2614 N.3     1  UNL1        0.0000
      3 C          -2.4249    9.1717   18.4808 C.2     1  UNL1        0.0000
      4 C          -3.0681    9.1530   19.8409 C.3     1  UNL1        0.0000
      5 H          -4.1338    9.3500   19.7724 H       1  UNL1        0.0000
      6 H          -2.6204    9.8765   20.5260 H       1  UNL1        0.0000
      7 H          -2.9426    8.1625   20.2888 H       1  UNL1        0.0000
      8 C          -1.0297    9.0652   18.2696 C.2     1  UNL1        0.0000
      9 C           0.0034    8.8460   19.3434 C.3     1  UNL1        0.0000
     10 H           0.9369    9.3749   19.1471 H       1  UNL1        0.0000
     11 H           0.2410    7.7801   19.4051 H       1  UNL1        0.0000
     12 H          -0.3653    9.1557   20.3197 H       1  UNL1        0.0000
     13 C          -0.8215    8.8397   16.8814 C.2     1  UNL1        0.0000
     14 C           0.4742    8.4678   16.2198 C.3     1  UNL1        0.0000
     15 H           1.3279    8.6849   16.8598 H       1  UNL1        0.0000
     16 H           0.5947    9.0049   15.2780 H       1  UNL1        0.0000
     17 H           0.4839    7.3969   15.9986 H       1  UNL1        0.0000
     18 C          -2.0896    8.7786   16.2550 C.2     1  UNL1        0.0000
     19 C          -2.2665    8.4504   14.8026 C.3     1  UNL1        0.0000
     20 H          -1.7477    9.1868   14.1842 H       1  UNL1        0.0000
     21 H          -3.3178    8.4327   14.5317 H       1  UNL1        0.0000
     22 H          -1.8405    7.4666   14.5866 H       1  UNL1        0.0000
     23 C          -3.1023    8.9640   17.2385 C.3     1  UNL1        0.0000
     24 C          -5.9313   10.2611   18.1835 C.3     1  UNL1        0.0000
     25 H          -6.2190    9.3544   18.7063 H       1  UNL1        0.0000
     26 H          -6.8400   10.6912   17.7744 H       1  UNL1        0.0000
     27 H          -5.5418   10.9673   18.9112 H       1  UNL1        0.0000
     28 C          -5.8012    8.8843   15.5444 C.3     1  UNL1        0.0000
     29 H          -5.9062    7.8578   15.8819 H       1  UNL1        0.0000
     30 H          -5.4256    8.8553   14.5275 H       1  UNL1        0.0000
     31 H          -6.7971    9.3150   15.5087 H       1  UNL1        0.0000
     32 C          -4.2759   12.2726   15.2878 C.3     1  UNL1        0.0000
     33 C          -4.0986   11.6969   13.8700 C.3     1  UNL1        0.0000
     34 H          -4.3058   12.4551   13.1173 H       1  UNL1        0.0000
     35 H          -4.7745   10.8610   13.7170 H       1  UNL1        0.0000
     36 H          -3.0707   11.3480   13.7638 H       1  UNL1        0.0000
     37 C          -5.7496   12.6449   15.5135 C.3     1  UNL1        0.0000
     38 H          -6.0566   13.4229   14.8180 H       1  UNL1        0.0000
     39 H          -5.8872   13.0053   16.5303 H       1  UNL1        0.0000
     40 H          -6.3840   11.7765   15.3648 H       1  UNL1        0.0000
     41 C          -3.4289   13.5497   15.3784 C.3     1  UNL1        0.0000
     42 H          -3.8044   14.3048   14.6892 H       1  UNL1        0.0000
     43 H          -2.4021   13.3005   15.1155 H       1  UNL1        0.0000
     44 H          -3.4548   13.9501   16.3907 H       1  UNL1        0.0000
@<TRIPOS>BOND
     1    34    33    1
     2    35    33    1
     3    36    33    1
     4    33    32    1
     5    20    19    1
     6    30    28    1
     7    21    19    1
     8    22    19    1
     9    42    41    1
    10    19    18    1
    11    38    37    1
    12    43    41    1
    13    16    14    1
    14    32    41    1
    15    32    37    1
    16    32     2    1
    17    40    37    1
    18    41    44    1
    19    31    28    1
    20    37    39    1
    21    28    29    1
    22    28     1    1
    23    17    14    1
    24    14    15    1
    25    14    13    1
    26    18    13    2
    27    18    23    1
    28     2     1    1
    29     1    23    1
    30     1    24    1
    31    13     8    1
    32    23     3    1
    33    26    24    1
    34    24    25    1
    35    24    27    1
    36     8     3    2
    37     8     9    1
    38     3     4    1
    39    10     9    1
    40     9    11    1
    41     9    12    1
    42     5     4    1
    43     4     7    1
    44     4     6    1
