@<TRIPOS>MOLECULE
3,21,22,24,26,27
 47 49 0 0 0
SMALL
GASTEIGER

@<TRIPOS>ATOM
      1 SI          6.8286   11.6454    3.2430 Si      1  UNL1        0.0000
      2 N           6.0620   10.0733    3.6295 N.pl3   1  UNL1        0.0000
      3 N           4.5806    8.4330    3.7382 N.pl3   1  UNL1        0.0000
      4 C           4.7576    9.7279    3.5250 C.3     1  UNL1        0.0000
      5 C           6.7381    8.9163    3.9388 C.2     1  UNL1        0.0000
      6 H           7.7964    8.9100    4.0847 H       1  UNL1        0.0000
      7 C           5.8269    7.9156    4.0087 C.2     1  UNL1        0.0000
      8 H           5.9553    6.8795    4.2656 H       1  UNL1        0.0000
      9 C           3.6480   10.6907    3.3218 C.3     1  UNL1        0.0000
     10 H           3.1832   10.4953    2.3506 H       1  UNL1        0.0000
     11 H           4.0422   11.7059    3.3285 H       1  UNL1        0.0000
     12 C           2.5750   10.5364    4.4391 C.3     1  UNL1        0.0000
     13 C           1.6087   11.7287    4.3693 C.3     1  UNL1        0.0000
     14 H           2.1276   12.6543    4.6127 H       1  UNL1        0.0000
     15 H           0.8024   11.5875    5.0847 H       1  UNL1        0.0000
     16 H           1.1690   11.8293    3.3834 H       1  UNL1        0.0000
     17 C           3.2620   10.5763    5.8110 C.3     1  UNL1        0.0000
     18 H           3.9483    9.7415    5.9422 H       1  UNL1        0.0000
     19 H           2.5160   10.5392    6.6011 H       1  UNL1        0.0000
     20 H           3.8229   11.5031    5.9171 H       1  UNL1        0.0000
     21 C           1.8243    9.2387    4.2356 C.2     1  UNL1        0.0000
     22 C           1.7427    8.1645    5.1558 C.2     1  UNL1        0.0000
     23 H           2.2230    8.1190    6.1256 H       1  UNL1        0.0000
     24 C           0.8668    7.1767    4.6670 C.3     1  UNL1        0.0000
     25 H           0.5578    6.2826    5.1952 H       1  UNL1        0.0000
     26 C           0.3204    7.6532    3.4423 C.ar    1  UNL1        0.0000
     27 C           0.9223    8.9359    3.1581 C.ar    1  UNL1        0.0000
     28 C           0.5227    9.6160    1.9882 C.ar    1  UNL1        0.0000
     29 H           0.9530   10.5701    1.7171 H       1  UNL1        0.0000
     30 C          -0.4253    9.0567    1.1694 C.ar    1  UNL1        0.0000
     31 H          -0.7264    9.5787    0.2731 H       1  UNL1        0.0000
     32 C          -1.0189    7.8185    1.4651 C.ar    1  UNL1        0.0000
     33 H          -1.7672    7.4222    0.7953 H       1  UNL1        0.0000
     34 C          -0.6580    7.1155    2.5848 C.ar    1  UNL1        0.0000
     35 H          -1.1137    6.1628    2.8193 H       1  UNL1        0.0000
     36 C           6.2571   12.9267    4.5334 C.3     1  UNL1        0.0000
     37 H           5.2784   13.3427    4.3146 H       1  UNL1        0.0000
     38 H           6.9544   13.7585    4.5644 H       1  UNL1        0.0000
     39 H           6.2189   12.4983    5.5316 H       1  UNL1        0.0000
     40 C           8.7022   11.3765    3.4239 C.3     1  UNL1        0.0000
     41 H           8.9823   11.1080    4.4385 H       1  UNL1        0.0000
     42 H           9.2300   12.2925    3.1778 H       1  UNL1        0.0000
     43 H           9.0728   10.6037    2.7567 H       1  UNL1        0.0000
     44 C           6.3650   12.0466    1.4438 C.3     1  UNL1        0.0000
     45 H           6.9574   11.4561    0.7499 H       1  UNL1        0.0000
     46 H           6.5483   13.0922    1.2165 H       1  UNL1        0.0000
     47 H           5.3219   11.8373    1.2274 H       1  UNL1        0.0000
@<TRIPOS>BOND
     1    31    30    1
     2    45    44    1
     3    33    32    1
     4    30    32   ar
     5    30    28   ar
     6    46    44    1
     7    47    44    1
     8    44     1    1
     9    32    34   ar
    10    29    28    1
    11    28    27   ar
    12    10     9    1
    13    34    35    1
    14    34    26   ar
    15    43    40    1
    16    27    26   ar
    17    27    21    1
    18    42    40    1
    19     1    40    1
    20     1     2    1
    21     1    36    1
    22     9    11    1
    23     9     4    1
    24     9    12    1
    25    16    13    1
    26    40    41    1
    27    26    24    1
    28     4     2    1
    29     4     3    1
    30     2     5    1
    31     3     7    1
    32     5     7    2
    33     5     6    1
    34     7     8    1
    35    21    12    1
    36    21    22    2
    37    37    36    1
    38    13    12    1
    39    13    14    1
    40    13    15    1
    41    12    17    1
    42    36    38    1
    43    36    39    1
    44    24    22    1
    45    24    25    1
    46    22    23    1
    47    17    20    1
    48    17    18    1
    49    17    19    1
