@<TRIPOS>MOLECULE
2,3,4,5,6,40
 41 41 0 0 0
SMALL
GASTEIGER

@<TRIPOS>ATOM
      1 SI          8.0993    2.0801    5.6698 Si      1  UNL1        0.0000
      2 C           8.7640    1.4705    3.9961 C.3     1  UNL1        0.0000
      3 C          10.0494    0.8462    3.9793 C.2     1  UNL1        0.0000
      4 C          10.0623   -0.1726    2.9985 C.2     1  UNL1        0.0000
      5 C           8.7653   -0.2329    2.4301 C.2     1  UNL1        0.0000
      6 C           7.9655    0.7648    3.0518 C.2     1  UNL1        0.0000
      7 C          11.2602   -0.9662    2.5695 C.3     1  UNL1        0.0000
      8 H          11.0367   -2.0338    2.5285 H       1  UNL1        0.0000
      9 H          12.0833   -0.8150    3.2671 H       1  UNL1        0.0000
     10 H          11.5851   -0.6503    1.5756 H       1  UNL1        0.0000
     11 C           8.3316   -1.1045    1.2901 C.3     1  UNL1        0.0000
     12 H           8.3101   -0.5263    0.3630 H       1  UNL1        0.0000
     13 H           7.3305   -1.5004    1.4654 H       1  UNL1        0.0000
     14 H           9.0176   -1.9391    1.1549 H       1  UNL1        0.0000
     15 C           6.5542    1.0850    2.6548 C.3     1  UNL1        0.0000
     16 H           6.4858    1.1865    1.5701 H       1  UNL1        0.0000
     17 H           6.2347    2.0181    3.1108 H       1  UNL1        0.0000
     18 H           5.8703    0.2889    2.9606 H       1  UNL1        0.0000
     19 C           6.4641    3.0745    5.6189 C.3     1  UNL1        0.0000
     20 H           5.6093    2.4409    5.4044 H       1  UNL1        0.0000
     21 H           6.5072    3.8536    4.8651 H       1  UNL1        0.0000
     22 H           6.2842    3.5597    6.5721 H       1  UNL1        0.0000
     23 C           9.4211    3.1618    6.5401 C.3     1  UNL1        0.0000
     24 H           9.0761    3.4975    7.5127 H       1  UNL1        0.0000
     25 H           9.6371    4.0474    5.9515 H       1  UNL1        0.0000
     26 H          10.3536    2.6246    6.6857 H       1  UNL1        0.0000
     27 C           7.7316   -0.0447    7.5471 C.3     1  UNL1        0.0000
     28 C           6.7467    0.8744    8.2822 C.3     1  UNL1        0.0000
     29 H           7.1628    1.8730    8.3814 H       1  UNL1        0.0000
     30 H           6.5398    0.4833    9.2752 H       1  UNL1        0.0000
     31 H           5.8150    0.9363    7.7258 H       1  UNL1        0.0000
     32 C           9.0717   -0.0687    8.3039 C.3     1  UNL1        0.0000
     33 H           9.7989   -0.6586    7.7432 H       1  UNL1        0.0000
     34 H           8.9440   -0.5084    9.2901 H       1  UNL1        0.0000
     35 H           9.4530    0.9434    8.4156 H       1  UNL1        0.0000
     36 C           7.1379   -1.4636    7.5186 C.3     1  UNL1        0.0000
     37 H           6.2077   -1.4651    6.9469 H       1  UNL1        0.0000
     38 H           6.9242   -1.7979    8.5321 H       1  UNL1        0.0000
     39 H           7.8410   -2.1682    7.0642 H       1  UNL1        0.0000
     40 N           7.9634    0.4255    6.1933 N.3     1  UNL1        0.0000
     41 H          10.9185    1.1862    4.5330 H       1  UNL1        0.0000
@<TRIPOS>BOND
     1    12    11    1
     2    14    11    1
     3    11    13    1
     4    11     5    1
     5    16    15    1
     6    10     7    1
     7     5     4    1
     8     5     6    2
     9     8     7    1
    10     7     4    1
    11     7     9    1
    12    15    18    1
    13    15     6    1
    14    15    17    1
    15     4     3    2
    16     6     2    1
    17     3     2    1
    18     3    41    1
    19     2     1    1
    20    21    19    1
    21    20    19    1
    22    19     1    1
    23    19    22    1
    24     1    40    1
    25     1    23    1
    26    25    23    1
    27    40    27    1
    28    23    26    1
    29    23    24    1
    30    37    36    1
    31    39    36    1
    32    36    27    1
    33    36    38    1
    34    27    28    1
    35    27    32    1
    36    31    28    1
    37    33    32    1
    38    28    29    1
    39    28    30    1
    40    32    35    1
    41    32    34    1
