@<TRIPOS>MOLECULE
3,72,73,74,75
 91 95 0 0 0
SMALL
GASTEIGER

@<TRIPOS>ATOM
      1 SI          5.7800    6.4416    3.7284 Si      1  UNL1        0.0000
      2 B          10.1014    9.3109   -1.8254 B       1  UNL1        0.0000
      3 N           6.3228    7.0641    2.2025 N.pl3   1  UNL1        0.0000
      4 N           7.0326    8.5696    0.6724 N.ar    1  UNL1        0.0000
      5 C           7.2230    8.0024    1.8958 C.ar    1  UNL1        0.0000
      6 C           7.8904    9.5248    0.2877 C.ar    1  UNL1        0.0000
      7 C           8.8926   10.0142    1.1124 C.ar    1  UNL1        0.0000
      8 H           9.5024   10.8370    0.7804 H       1  UNL1        0.0000
      9 C           9.0814    9.4430    2.3660 C.ar    1  UNL1        0.0000
     10 H           9.8626    9.8052    3.0192 H       1  UNL1        0.0000
     11 C           8.2653    8.4144    2.7537 C.ar    1  UNL1        0.0000
     12 H           8.3756    7.9182    3.7041 H       1  UNL1        0.0000
     13 C           7.7305   10.1642   -1.0404 C.ar    1  UNL1        0.0000
     14 C           8.7568   10.1098   -2.0036 C.ar    1  UNL1        0.0000
     15 C           8.5502   10.8096   -3.1994 C.ar    1  UNL1        0.0000
     16 H           9.3235   10.7770   -3.9543 H       1  UNL1        0.0000
     17 C           7.4017   11.5390   -3.4363 C.ar    1  UNL1        0.0000
     18 H           7.2771   12.0625   -4.3732 H       1  UNL1        0.0000
     19 C           6.4248   11.6185   -2.4571 C.ar    1  UNL1        0.0000
     20 H           5.5384   12.2154   -2.6138 H       1  UNL1        0.0000
     21 C           6.5968   10.9373   -1.2662 C.ar    1  UNL1        0.0000
     22 H           5.8556   11.0235   -0.4845 H       1  UNL1        0.0000
     23 C          11.4301    9.9264   -2.3957 C.ar    1  UNL1        0.0000
     24 C          12.2594    9.1616   -3.2413 C.ar    1  UNL1        0.0000
     25 C          13.4217    9.6963   -3.7691 C.ar    1  UNL1        0.0000
     26 H          14.0343    9.0897   -4.4224 H       1  UNL1        0.0000
     27 C          13.8257   10.9920   -3.4793 C.ar    1  UNL1        0.0000
     28 C          13.0185   11.7467   -2.6477 C.ar    1  UNL1        0.0000
     29 H          13.3104   12.7592   -2.4036 H       1  UNL1        0.0000
     30 C          11.8387   11.2417   -2.1161 C.ar    1  UNL1        0.0000
     31 C          11.8833    7.7632   -3.6339 C.3     1  UNL1        0.0000
     32 H          11.6637    7.1609   -2.7561 H       1  UNL1        0.0000
     33 H          12.6896    7.2920   -4.1916 H       1  UNL1        0.0000
     34 H          10.9948    7.7770   -4.2630 H       1  UNL1        0.0000
     35 C          15.0862   11.5486   -4.0668 C.3     1  UNL1        0.0000
     36 H          15.9054   10.8397   -3.9588 H       1  UNL1        0.0000
     37 H          15.3627   12.4824   -3.5833 H       1  UNL1        0.0000
     38 H          14.9506   11.7403   -5.1316 H       1  UNL1        0.0000
     39 C          11.0772   12.1442   -1.1876 C.3     1  UNL1        0.0000
     40 H          11.4602   12.0376   -0.1708 H       1  UNL1        0.0000
     41 H          10.0166   11.9166   -1.1847 H       1  UNL1        0.0000
     42 H          11.2102   13.1843   -1.4792 H       1  UNL1        0.0000
     43 C          10.0368    7.9252   -1.0951 C.ar    1  UNL1        0.0000
     44 C          10.7898    7.7094    0.0726 C.ar    1  UNL1        0.0000
     45 C          10.5435    6.6023    0.8657 C.ar    1  UNL1        0.0000
     46 H          11.0990    6.4763    1.7851 H       1  UNL1        0.0000
     47 C           9.5987    5.6499    0.5117 C.ar    1  UNL1        0.0000
     48 C           8.9551    5.7928   -0.7062 C.ar    1  UNL1        0.0000
     49 H           8.2857    5.0130   -1.0445 H       1  UNL1        0.0000
     50 C           9.1585    6.9098   -1.5041 C.ar    1  UNL1        0.0000
     51 C          11.8794    8.6618    0.4721 C.3     1  UNL1        0.0000
     52 H          12.2905    8.3881    1.4413 H       1  UNL1        0.0000
     53 H          11.5154    9.6831    0.5234 H       1  UNL1        0.0000
     54 H          12.6824    8.6349   -0.2640 H       1  UNL1        0.0000
     55 C           9.2824    4.5080    1.4269 C.3     1  UNL1        0.0000
     56 H           8.5414    4.8360    2.1571 H       1  UNL1        0.0000
     57 H          10.1686    4.1820    1.9675 H       1  UNL1        0.0000
     58 H           8.8734    3.6638    0.8759 H       1  UNL1        0.0000
     59 C           8.5196    6.9500   -2.8626 C.3     1  UNL1        0.0000
     60 H           7.5460    6.4668   -2.8653 H       1  UNL1        0.0000
     61 H           9.1524    6.4099   -3.5691 H       1  UNL1        0.0000
     62 H           8.4119    7.9695   -3.2216 H       1  UNL1        0.0000
     63 C           6.8385    5.0564    4.5302 C.3     1  UNL1        0.0000
     64 H           7.0171    4.2149    3.8718 H       1  UNL1        0.0000
     65 H           6.3436    4.6781    5.4183 H       1  UNL1        0.0000
     66 H           7.8048    5.4446    4.8374 H       1  UNL1        0.0000
     67 C           5.6452    7.7985    5.0779 C.3     1  UNL1        0.0000
     68 H           6.5826    7.8829    5.6182 H       1  UNL1        0.0000
     69 H           4.8740    7.5739    5.8054 H       1  UNL1        0.0000
     70 H           5.4283    8.7708    4.6454 H       1  UNL1        0.0000
     71 C           4.1491    5.8885    2.9398 C.3     1  UNL1        0.0000
     72 C           4.1334    4.9495    1.8669 C.2     1  UNL1        0.0000
     73 C           2.9876    5.1838    1.0733 C.2     1  UNL1        0.0000
     74 C           2.3007    6.3068    1.6234 C.2     1  UNL1        0.0000
     75 C           3.0163    6.7407    2.7652 C.2     1  UNL1        0.0000
     76 C           5.1490    3.8571    1.6584 C.3     1  UNL1        0.0000
     77 H           5.2558    3.2625    2.5661 H       1  UNL1        0.0000
     78 H           6.1286    4.2786    1.4058 H       1  UNL1        0.0000
     79 H           4.8387    3.1855    0.8589 H       1  UNL1        0.0000
     80 C           2.3920    4.2333    0.0692 C.3     1  UNL1        0.0000
     81 H           3.1463    3.7814   -0.5748 H       1  UNL1        0.0000
     82 H           1.6553    4.7359   -0.5536 H       1  UNL1        0.0000
     83 H           1.8798    3.4217    0.5931 H       1  UNL1        0.0000
     84 C           0.9443    6.7680    1.1627 C.3     1  UNL1        0.0000
     85 H           0.1873    6.0161    1.3976 H       1  UNL1        0.0000
     86 H           0.9291    6.9324    0.0833 H       1  UNL1        0.0000
     87 H           0.6585    7.6952    1.6532 H       1  UNL1        0.0000
     88 C           2.5373    7.7240    3.7987 C.3     1  UNL1        0.0000
     89 H           2.4537    7.2226    4.7643 H       1  UNL1        0.0000
     90 H           1.5548    8.1144    3.5434 H       1  UNL1        0.0000
     91 H           3.2150    8.5686    3.9201 H       1  UNL1        0.0000
@<TRIPOS>BOND
     1    38    35    1
     2    26    25    1
     3    18    17    1
     4    34    31    1
     5    33    31    1
     6    35    36    1
     7    35    37    1
     8    35    27    1
     9    16    15    1
    10    25    27   ar
    11    25    24   ar
    12    31    24    1
    13    31    32    1
    14    61    59    1
    15    27    28   ar
    16    17    15   ar
    17    17    19   ar
    18    24    23   ar
    19    62    59    1
    20    15    14   ar
    21    60    59    1
    22    59    50    1
    23    28    29    1
    24    28    30   ar
    25    20    19    1
    26    19    21   ar
    27    23    30   ar
    28    23     2    1
    29    30    39    1
    30    14     2    1
    31    14    13   ar
    32     2    43    1
    33    50    43   ar
    34    50    48   ar
    35    42    39    1
    36    21    13   ar
    37    21    22    1
    38    39    41    1
    39    39    40    1
    40    43    44   ar
    41    49    48    1
    42    13     6    1
    43    48    47   ar
    44    81    80    1
    45    82    80    1
    46    54    51    1
    47    80    83    1
    48    80    73    1
    49    44    51    1
    50    44    45   ar
    51    86    84    1
    52     6     4   ar
    53     6     7   ar
    54    51    53    1
    55    51    52    1
    56    47    45   ar
    57    47    55    1
    58     4     5   ar
    59     8     7    1
    60    79    76    1
    61    45    46    1
    62    58    55    1
    63    73    74    1
    64    73    72    2
    65     7     9   ar
    66    84    85    1
    67    84    74    1
    68    84    87    1
    69    78    76    1
    70    55    57    1
    71    55    56    1
    72    74    75    2
    73    76    72    1
    74    76    77    1
    75    72    71    1
    76     5     3    1
    77     5    11   ar
    78     3     1    1
    79     9    11   ar
    80     9    10    1
    81    11    12    1
    82    75    71    1
    83    75    88    1
    84    71     1    1
    85    90    88    1
    86     1    63    1
    87     1    67    1
    88    88    91    1
    89    88    89    1
    90    64    63    1
    91    63    66    1
    92    63    65    1
    93    70    67    1
    94    67    68    1
    95    67    69    1
