@<TRIPOS>MOLECULE
3,5,7,9,11
 30 30 0 0 0
SMALL
GASTEIGER

@<TRIPOS>ATOM
      1 SI          1.6510   -0.8029    2.7415 Si      1  UNL1        0.0000
      2 S           2.5502    3.1542   -0.8375 S.3     1  UNL1        0.0000
      3 N           1.0847    0.5715    1.8229 N.3     1  UNL1        0.0000
      4 C           0.3948   -0.3221    4.0900 C.3     1  UNL1        0.0000
      5 C           0.6513    0.7572    4.9754 C.3     1  UNL1        0.0000
      6 H           1.6012    0.9626    5.4565 H       1  UNL1        0.0000
      7 C          -0.5610    1.4304    5.2416 C.2     1  UNL1        0.0000
      8 H          -0.7000    2.2256    5.9651 H       1  UNL1        0.0000
      9 C          -1.5806    0.7956    4.5033 C.2     1  UNL1        0.0000
     10 H          -2.6403    1.0159    4.5640 H       1  UNL1        0.0000
     11 C          -0.9941   -0.2645    3.7787 C.3     1  UNL1        0.0000
     12 H          -1.5328   -0.9908    3.1799 H       1  UNL1        0.0000
     13 C           3.4622   -0.6247    3.3284 C.3     1  UNL1        0.0000
     14 H           3.6627    0.3872    3.6736 H       1  UNL1        0.0000
     15 H           3.6838   -1.3099    4.1395 H       1  UNL1        0.0000
     16 H           4.1533   -0.8421    2.5204 H       1  UNL1        0.0000
     17 C           1.3315   -2.4825    1.8956 C.3     1  UNL1        0.0000
     18 H           2.0324   -2.6403    1.0826 H       1  UNL1        0.0000
     19 H           0.3278   -2.5418    1.4852 H       1  UNL1        0.0000
     20 H           1.4568   -3.2996    2.5974 H       1  UNL1        0.0000
     21 C           1.4913    0.9411    0.4905 C.3     1  UNL1        0.0000
     22 H           1.7914    0.0519   -0.0781 H       1  UNL1        0.0000
     23 H           0.6316    1.3930   -0.0302 H       1  UNL1        0.0000
     24 C           2.6536    1.9469    0.5180 C.3     1  UNL1        0.0000
     25 H           3.6149    1.4458    0.4150 H       1  UNL1        0.0000
     26 H           2.6352    2.5078    1.4587 H       1  UNL1        0.0000
     27 C           1.2869    4.2515   -0.1342 C.3     1  UNL1        0.0000
     28 H           1.6971    4.7557    0.7374 H       1  UNL1        0.0000
     29 H           1.0341    4.9755   -0.9016 H       1  UNL1        0.0000
     30 H           0.4043    3.6736    0.1406 H       1  UNL1        0.0000
@<TRIPOS>BOND
     1    29    27    1
     2     2    27    1
     3     2    24    1
     4    27    30    1
     5    27    28    1
     6    22    21    1
     7    23    21    1
     8    25    24    1
     9    21    24    1
    10    21     3    1
    11    24    26    1
    12    18    17    1
    13    19    17    1
    14     3     1    1
    15    17    20    1
    16    17     1    1
    17    16    13    1
    18     1    13    1
    19     1     4    1
    20    12    11    1
    21    13    14    1
    22    13    15    1
    23    11     4    1
    24    11     9    1
    25     4     5    1
    26     9    10    1
    27     9     7    2
    28     5     7    1
    29     5     6    1
    30     7     8    1
