@<TRIPOS>MOLECULE
2,3,12,13,21
 80 85 0 0 0
SMALL
GASTEIGER

@<TRIPOS>ATOM
      1 SI          6.4107   19.9874   10.0525 Si      1  UNL1        0.0000
      2 N           6.8116   18.6957    8.9917 N.3     1  UNL1        0.0000
      3 C           7.2051   19.1846   11.5829 C.3     1  UNL1        0.0000
      4 C           8.6100   18.9074   11.6007 C.3     1  UNL1        0.0000
      5 C           9.7050   19.5277   10.9686 C.2     1  UNL1        0.0000
      6 H           9.5566   20.4245   10.3804 H       1  UNL1        0.0000
      7 C          10.9787   19.0377   11.1586 C.2     1  UNL1        0.0000
      8 H          11.7923   19.5498   10.6696 H       1  UNL1        0.0000
      9 C          11.2533   17.9208   11.9714 C.2     1  UNL1        0.0000
     10 C          10.1893   17.2700   12.5740 C.2     1  UNL1        0.0000
     11 H          10.3581   16.4104   13.2102 H       1  UNL1        0.0000
     12 C           8.8800   17.7163   12.3791 C.3     1  UNL1        0.0000
     13 C           7.6079   17.2161   12.8244 C.ar    1  UNL1        0.0000
     14 C           7.2620   16.1004   13.5967 C.ar    1  UNL1        0.0000
     15 H           8.0537   15.4652   13.9676 H       1  UNL1        0.0000
     16 C           5.9371   15.8383   13.8857 C.ar    1  UNL1        0.0000
     17 C           4.9568   16.7313   13.4006 C.ar    1  UNL1        0.0000
     18 H           3.9194   16.5426   13.6354 H       1  UNL1        0.0000
     19 C           5.2578   17.8401   12.6487 C.ar    1  UNL1        0.0000
     20 H           4.4702   18.5111   12.3357 H       1  UNL1        0.0000
     21 C           6.5991   18.1247   12.3271 C.ar    1  UNL1        0.0000
     22 C          12.6682   17.4074   12.2060 C.3     1  UNL1        0.0000
     23 C          13.7279   18.2106   11.4466 C.3     1  UNL1        0.0000
     24 H          13.7334   19.2507   11.7640 H       1  UNL1        0.0000
     25 H          13.5603   18.1652   10.3727 H       1  UNL1        0.0000
     26 H          14.7124   17.7933   11.6499 H       1  UNL1        0.0000
     27 C          12.9890   17.4966   13.7052 C.3     1  UNL1        0.0000
     28 H          14.0008   17.1445   13.8964 H       1  UNL1        0.0000
     29 H          12.3018   16.8941   14.2927 H       1  UNL1        0.0000
     30 H          12.9114   18.5275   14.0441 H       1  UNL1        0.0000
     31 C          12.7625   15.9457   11.7435 C.3     1  UNL1        0.0000
     32 H          13.7729   15.5690   11.8907 H       1  UNL1        0.0000
     33 H          12.5174   15.8682   10.6862 H       1  UNL1        0.0000
     34 H          12.0797   15.3085   12.2987 H       1  UNL1        0.0000
     35 C           5.4907   14.6332   14.7005 C.3     1  UNL1        0.0000
     36 C           4.7504   15.1152   15.9563 C.3     1  UNL1        0.0000
     37 H           4.4436   14.2649   16.5622 H       1  UNL1        0.0000
     38 H           3.8633   15.6868   15.6986 H       1  UNL1        0.0000
     39 H           5.4016   15.7494   16.5543 H       1  UNL1        0.0000
     40 C           6.6647   13.7579   15.1490 C.3     1  UNL1        0.0000
     41 H           7.2132   13.3699   14.2933 H       1  UNL1        0.0000
     42 H           6.2886   12.9104   15.7190 H       1  UNL1        0.0000
     43 H           7.3462   14.3153   15.7876 H       1  UNL1        0.0000
     44 C           4.5537   13.7667   13.8460 C.3     1  UNL1        0.0000
     45 H           5.0712   13.4214   12.9527 H       1  UNL1        0.0000
     46 H           3.6730   14.3218   13.5355 H       1  UNL1        0.0000
     47 H           4.2260   12.8964   14.4113 H       1  UNL1        0.0000
     48 C           4.5106   20.2368   10.1956 C.3     1  UNL1        0.0000
     49 H           3.9855   19.2868   10.1556 H       1  UNL1        0.0000
     50 H           4.1478   20.8448    9.3733 H       1  UNL1        0.0000
     51 H           4.2374   20.7412   11.1158 H       1  UNL1        0.0000
     52 C           7.1155   21.7555    9.7468 C.3     1  UNL1        0.0000
     53 H           7.3235   22.2682   10.6802 H       1  UNL1        0.0000
     54 H           6.3986   22.3579    9.1984 H       1  UNL1        0.0000
     55 H           8.0345   21.7410    9.1696 H       1  UNL1        0.0000
     56 C           7.0957   18.6939    7.5790 C.3     1  UNL1        0.0000
     57 C           6.2986   19.7494    6.7991 C.3     1  UNL1        0.0000
     58 H           6.5356   20.7375    7.1934 H       1  UNL1        0.0000
     59 H           5.2332   19.5733    6.9568 H       1  UNL1        0.0000
     60 C           6.6403   19.6811    5.3109 C.3     1  UNL1        0.0000
     61 H           6.0655   20.4442    4.7741 H       1  UNL1        0.0000
     62 C           8.1335   19.9390    5.1126 C.3     1  UNL1        0.0000
     63 H           8.3778   19.9051    4.0485 H       1  UNL1        0.0000
     64 H           8.3910   20.9331    5.4838 H       1  UNL1        0.0000
     65 C           8.9376   18.8786    5.8655 C.3     1  UNL1        0.0000
     66 H          10.0083   19.0634    5.7205 H       1  UNL1        0.0000
     67 C           8.6021   18.9554    7.3546 C.3     1  UNL1        0.0000
     68 H           9.1803   18.2143    7.9314 H       1  UNL1        0.0000
     69 H           8.8430   19.9495    7.7400 H       1  UNL1        0.0000
     70 C           8.5848   17.4915    5.3302 C.3     1  UNL1        0.0000
     71 H           8.8451   17.4252    4.2716 H       1  UNL1        0.0000
     72 H           9.1575   16.7311    5.8669 H       1  UNL1        0.0000
     73 C           7.0888   17.2393    5.5152 C.3     1  UNL1        0.0000
     74 H           6.8359   16.2468    5.1249 H       1  UNL1        0.0000
     75 C           6.2881   18.3002    4.7614 C.3     1  UNL1        0.0000
     76 H           5.2192   18.1133    4.8818 H       1  UNL1        0.0000
     77 H           6.5190   18.2541    3.6948 H       1  UNL1        0.0000
     78 C           6.7460   17.3035    7.0040 C.3     1  UNL1        0.0000
     79 H           5.6772   17.1229    7.1589 H       1  UNL1        0.0000
     80 H           7.3116   16.5367    7.5607 H       1  UNL1        0.0000
@<TRIPOS>BOND
     1    77    75    1
     2    63    62    1
     3    71    70    1
     4    75    76    1
     5    75    60    1
     6    75    73    1
     7    61    60    1
     8    62    60    1
     9    62    64    1
    10    62    65    1
    11    74    73    1
    12    60    57    1
    13    70    73    1
    14    70    65    1
    15    70    72    1
    16    73    78    1
    17    66    65    1
    18    65    67    1
    19    57    59    1
    20    57    58    1
    21    57    56    1
    22    78    79    1
    23    78    80    1
    24    78    56    1
    25    67    56    1
    26    67    69    1
    27    67    68    1
    28    56     2    1
    29     2     1    1
    30    55    52    1
    31    54    52    1
    32    50    48    1
    33    52     1    1
    34    52    53    1
    35     1    48    1
    36     1     3    1
    37    49    48    1
    38    48    51    1
    39    25    23    1
    40     6     5    1
    41     8     7    1
    42    33    31    1
    43     5     7    2
    44     5     4    1
    45     7     9    1
    46    23    26    1
    47    23    24    1
    48    23    22    1
    49     3     4    1
    50     3    21    1
    51     4    12    1
    52    31    32    1
    53    31    22    1
    54    31    34    1
    55     9    22    1
    56     9    10    2
    57    22    27    1
    58    21    19   ar
    59    21    13   ar
    60    20    19    1
    61    12    10    1
    62    12    13    1
    63    10    11    1
    64    19    17   ar
    65    13    14   ar
    66    45    44    1
    67    17    18    1
    68    17    16   ar
    69    46    44    1
    70    14    16   ar
    71    14    15    1
    72    27    28    1
    73    27    30    1
    74    27    29    1
    75    44    47    1
    76    44    35    1
    77    16    35    1
    78    41    40    1
    79    35    40    1
    80    35    36    1
    81    40    42    1
    82    40    43    1
    83    38    36    1
    84    36    39    1
    85    36    37    1
