@<TRIPOS>MOLECULE
2,3,4,12,13,21
 80 85 0 0 0
SMALL
GASTEIGER

@<TRIPOS>ATOM
      1 SI         15.9651    6.0400    9.5150 Si      1  UNL1        0.0000
      2 N          15.3924    7.2191   10.6267 N.3     1  UNL1        0.0000
      3 C          14.3501    5.9730    8.5095 C.3     1  UNL1        0.0000
      4 C          13.1318    5.5623    9.1412 C.3     1  UNL1        0.0000
      5 C          12.9047    4.7071   10.2403 C.2     1  UNL1        0.0000
      6 H          13.7521    4.1942   10.6691 H       1  UNL1        0.0000
      7 C          11.6244    4.4792   10.7041 C.2     1  UNL1        0.0000
      8 C          10.5352    5.1042   10.0571 C.2     1  UNL1        0.0000
      9 H           9.5307    4.9049   10.3977 H       1  UNL1        0.0000
     10 C          10.7096    5.9716    9.0035 C.2     1  UNL1        0.0000
     11 H           9.8514    6.4326    8.5295 H       1  UNL1        0.0000
     12 C          12.0033    6.2495    8.5512 C.3     1  UNL1        0.0000
     13 C          12.5326    7.1373    7.5557 C.ar    1  UNL1        0.0000
     14 C          11.9405    8.0458    6.6723 C.ar    1  UNL1        0.0000
     15 H          10.8635    8.1599    6.6436 H       1  UNL1        0.0000
     16 C          12.7383    8.7844    5.8305 C.ar    1  UNL1        0.0000
     17 H          12.2665    9.4839    5.1572 H       1  UNL1        0.0000
     18 C          14.1439    8.6475    5.8160 C.ar    1  UNL1        0.0000
     19 C          14.7405    7.7362    6.6617 C.ar    1  UNL1        0.0000
     20 H          15.8054    7.5716    6.6413 H       1  UNL1        0.0000
     21 C          13.9673    6.9618    7.5490 C.ar    1  UNL1        0.0000
     22 C          11.3372    3.5868   11.9047 C.3     1  UNL1        0.0000
     23 C          10.6817    4.4367   13.0035 C.3     1  UNL1        0.0000
     24 H           9.7472    4.8734   12.6617 H       1  UNL1        0.0000
     25 H          11.3497    5.2445   13.3000 H       1  UNL1        0.0000
     26 H          10.4712    3.8251   13.8786 H       1  UNL1        0.0000
     27 C          12.6029    2.9547   12.4912 C.3     1  UNL1        0.0000
     28 H          12.3337    2.3265   13.3383 H       1  UNL1        0.0000
     29 H          13.2922    3.7177   12.8456 H       1  UNL1        0.0000
     30 H          13.1048    2.3299   11.7564 H       1  UNL1        0.0000
     31 C          10.3916    2.4517   11.4877 C.3     1  UNL1        0.0000
     32 H          10.8394    1.8679   10.6865 H       1  UNL1        0.0000
     33 H           9.4381    2.8353   11.1365 H       1  UNL1        0.0000
     34 H          10.2012    1.7920   12.3320 H       1  UNL1        0.0000
     35 C          14.9463    9.5253    4.8654 C.3     1  UNL1        0.0000
     36 C          16.4554    9.2877    4.9736 C.3     1  UNL1        0.0000
     37 H          16.9767    9.9498    4.2846 H       1  UNL1        0.0000
     38 H          16.7108    8.2636    4.7124 H       1  UNL1        0.0000
     39 H          16.8130    9.4988    5.9788 H       1  UNL1        0.0000
     40 C          14.6761   10.9995    5.2008 C.3     1  UNL1        0.0000
     41 H          14.9514   11.2046    6.2334 H       1  UNL1        0.0000
     42 H          13.6273   11.2515    5.0713 H       1  UNL1        0.0000
     43 H          15.2629   11.6468    4.5518 H       1  UNL1        0.0000
     44 C          14.5203    9.2323    3.4200 C.3     1  UNL1        0.0000
     45 H          15.0954    9.8431    2.7268 H       1  UNL1        0.0000
     46 H          13.4661    9.4448    3.2661 H       1  UNL1        0.0000
     47 H          14.6937    8.1844    3.1842 H       1  UNL1        0.0000
     48 C          17.4939    6.6710    8.5349 C.3     1  UNL1        0.0000
     49 H          17.4150    7.7327    8.3208 H       1  UNL1        0.0000
     50 H          17.6234    6.1401    7.5981 H       1  UNL1        0.0000
     51 H          18.3980    6.5236    9.1168 H       1  UNL1        0.0000
     52 C          16.4787    4.2829   10.1242 C.3     1  UNL1        0.0000
     53 H          17.5555    4.2268   10.2455 H       1  UNL1        0.0000
     54 H          16.1919    3.5145    9.4137 H       1  UNL1        0.0000
     55 H          16.0333    4.0270   11.0804 H       1  UNL1        0.0000
     56 C          15.7007    7.4301   12.0183 C.3     1  UNL1        0.0000
     57 C          17.1492    7.0731   12.3830 C.3     1  UNL1        0.0000
     58 H          17.8244    7.6728   11.7702 H       1  UNL1        0.0000
     59 H          17.3283    6.0241   12.1474 H       1  UNL1        0.0000
     60 C          17.4011    7.3296   13.8688 C.3     1  UNL1        0.0000
     61 H          18.4367    7.0640   14.1092 H       1  UNL1        0.0000
     62 C          16.4518    6.4761   14.7091 C.3     1  UNL1        0.0000
     63 H          16.6406    6.6476   15.7712 H       1  UNL1        0.0000
     64 H          16.6251    5.4173   14.5051 H       1  UNL1        0.0000
     65 C          15.0058    6.8411   14.3715 C.3     1  UNL1        0.0000
     66 H          14.3260    6.2298   14.9766 H       1  UNL1        0.0000
     67 C          14.7541    6.5733   12.8884 C.3     1  UNL1        0.0000
     68 H          14.9423    5.5202   12.6634 H       1  UNL1        0.0000
     69 H          13.7118    6.8062   12.6103 H       1  UNL1        0.0000
     70 C          14.7646    8.3193   14.6744 C.3     1  UNL1        0.0000
     71 H          14.9207    8.5103   15.7384 H       1  UNL1        0.0000
     72 H          13.7322    8.5831   14.4319 H       1  UNL1        0.0000
     73 C          15.7249    9.1720   13.8456 C.3     1  UNL1        0.0000
     74 H          15.5560   10.2314   14.0696 H       1  UNL1        0.0000
     75 C          15.4720    8.9193   12.3588 C.3     1  UNL1        0.0000
     76 H          16.1504    9.5230   11.7474 H       1  UNL1        0.0000
     77 H          14.4351    9.1887   12.0944 H       1  UNL1        0.0000
     78 C          17.1687    8.8054   14.1868 C.3     1  UNL1        0.0000
     79 H          17.3614    8.9929   15.2455 H       1  UNL1        0.0000
     80 H          17.8556    9.4240   13.6059 H       1  UNL1        0.0000
@<TRIPOS>BOND
     1    45    44    1
     2    47    44    1
     3    46    44    1
     4    44    35    1
     5    37    36    1
     6    43    40    1
     7    38    36    1
     8    35    36    1
     9    35    40    1
    10    35    18    1
    11    36    39    1
    12    42    40    1
    13    17    16    1
    14    40    41    1
    15    18    16   ar
    16    18    19   ar
    17    16    14   ar
    18    20    19    1
    19    15    14    1
    20    19    21   ar
    21    14    13   ar
    22    21    13   ar
    23    21     3    1
    24    13    12    1
    25    50    48    1
    26    49    48    1
    27     3     4    1
    28     3     1    1
    29    11    10    1
    30    48    51    1
    31    48     1    1
    32    12    10    1
    33    12     4    1
    34    10     8    2
    35     4     5    1
    36    54    52    1
    37     1    52    1
    38     1     2    1
    39     8     9    1
    40     8     7    1
    41    52    53    1
    42    52    55    1
    43     5     6    1
    44     5     7    2
    45     2    56    1
    46    32    31    1
    47     7    22    1
    48    33    31    1
    49    31    22    1
    50    31    34    1
    51    76    75    1
    52    30    27    1
    53    58    57    1
    54    22    27    1
    55    22    23    1
    56    56    75    1
    57    56    57    1
    58    56    67    1
    59    77    75    1
    60    59    57    1
    61    75    73    1
    62    57    60    1
    63    27    29    1
    64    27    28    1
    65    69    67    1
    66    24    23    1
    67    68    67    1
    68    67    65    1
    69    23    25    1
    70    23    26    1
    71    80    78    1
    72    73    74    1
    73    73    78    1
    74    73    70    1
    75    60    61    1
    76    60    78    1
    77    60    62    1
    78    78    79    1
    79    65    70    1
    80    65    62    1
    81    65    66    1
    82    72    70    1
    83    64    62    1
    84    70    71    1
    85    62    63    1
