@<TRIPOS>MOLECULE
2,3,4,5,6,7
 61 63 0 0 0
SMALL
GASTEIGER

@<TRIPOS>ATOM
      1 SI          6.4113    2.5526    4.4884 Si      1  UNL1        0.0000
      2 N           6.4022    4.2651    4.7706 N.3     1  UNL1        0.0000
      3 C           5.8417    2.9304    2.7013 C.3     1  UNL1        0.0000
      4 C           6.6569    3.7742    1.8778 C.3     1  UNL1        0.0000
      5 C           5.8159    4.6101    1.0970 C.3     1  UNL1        0.0000
      6 C           4.4683    4.3191    1.4517 C.2     1  UNL1        0.0000
      7 C           4.4871    3.2923    2.4308 C.2     1  UNL1        0.0000
      8 C           8.1521    3.7363    1.7450 C.3     1  UNL1        0.0000
      9 H           8.6016    4.6554    2.1319 H       1  UNL1        0.0000
     10 H           8.4318    3.6404    0.6941 H       1  UNL1        0.0000
     11 H           8.5607    2.8895    2.2886 H       1  UNL1        0.0000
     12 C           6.2861    5.5244    0.0036 C.3     1  UNL1        0.0000
     13 H           6.4824    4.9499   -0.9055 H       1  UNL1        0.0000
     14 H           7.2071    6.0317    0.2933 H       1  UNL1        0.0000
     15 H           5.5376    6.2808   -0.2292 H       1  UNL1        0.0000
     16 C           3.2275    4.9052    0.8451 C.3     1  UNL1        0.0000
     17 H           2.8209    4.2305    0.0875 H       1  UNL1        0.0000
     18 H           3.4356    5.8625    0.3684 H       1  UNL1        0.0000
     19 H           2.4643    5.0585    1.6096 H       1  UNL1        0.0000
     20 C           3.2582    2.6232    2.9710 C.3     1  UNL1        0.0000
     21 H           2.7610    3.2505    3.7147 H       1  UNL1        0.0000
     22 H           3.5162    1.6721    3.4289 H       1  UNL1        0.0000
     23 H           2.5499    2.4376    2.1623 H       1  UNL1        0.0000
     24 C           6.6041    4.9642    6.0140 C.3     1  UNL1        0.0000
     25 H           5.9393    4.5520    6.7909 H       1  UNL1        0.0000
     26 H           6.3444    6.0276    5.8730 H       1  UNL1        0.0000
     27 C           8.0638    4.8625    6.4958 C.3     1  UNL1        0.0000
     28 H           8.2409    3.7947    6.6598 H       1  UNL1        0.0000
     29 C           8.2181    5.5986    7.8509 C.3     1  UNL1        0.0000
     30 H           7.3440    6.2508    7.9790 H       1  UNL1        0.0000
     31 C           9.4293    6.5312    7.8499 C.3     1  UNL1        0.0000
     32 H           9.5664    6.9893    8.8310 H       1  UNL1        0.0000
     33 C           9.2713    7.4597    6.6333 C.3     1  UNL1        0.0000
     34 H           8.2538    7.6634    6.3056 H       1  UNL1        0.0000
     35 H           9.8087    8.3997    6.7208 H       1  UNL1        0.0000
     36 C          10.0266    6.3834    5.8453 C.3     1  UNL1        0.0000
     37 H          10.6780    6.6987    5.0288 H       1  UNL1        0.0000
     38 C           9.0138    5.3479    5.3724 C.3     1  UNL1        0.0000
     39 H           9.5410    4.4941    4.9425 H       1  UNL1        0.0000
     40 H           8.4136    5.7935    4.5693 H       1  UNL1        0.0000
     41 C           8.2081    4.6270    9.0310 C.3     1  UNL1        0.0000
     42 H           9.0633    3.9597    9.0105 H       1  UNL1        0.0000
     43 H           7.3004    4.0269    9.0141 H       1  UNL1        0.0000
     44 H           8.2312    5.1800    9.9678 H       1  UNL1        0.0000
     45 C          10.6938    5.9504    7.1692 C.3     1  UNL1        0.0000
     46 C          11.9287    6.7919    7.4954 C.3     1  UNL1        0.0000
     47 H          11.7409    7.8557    7.3927 H       1  UNL1        0.0000
     48 H          12.7476    6.5270    6.8289 H       1  UNL1        0.0000
     49 H          12.2474    6.6019    8.5189 H       1  UNL1        0.0000
     50 C          11.0903    4.4900    7.3433 C.3     1  UNL1        0.0000
     51 H          11.4116    4.3125    8.3682 H       1  UNL1        0.0000
     52 H          11.9304    4.2687    6.6859 H       1  UNL1        0.0000
     53 H          10.2902    3.8009    7.1062 H       1  UNL1        0.0000
     54 C           8.0728    1.6063    4.6394 C.3     1  UNL1        0.0000
     55 H           8.1142    0.7824    3.9348 H       1  UNL1        0.0000
     56 H           8.1725    1.1843    5.6338 H       1  UNL1        0.0000
     57 H           8.9356    2.2395    4.4640 H       1  UNL1        0.0000
     58 C           5.1638    1.6501    5.6273 C.3     1  UNL1        0.0000
     59 H           5.6039    1.5035    6.6090 H       1  UNL1        0.0000
     60 H           4.8965    0.6704    5.2469 H       1  UNL1        0.0000
     61 H           4.2546    2.2298    5.7559 H       1  UNL1        0.0000
@<TRIPOS>BOND
     1    13    12    1
     2    15    12    1
     3    12    14    1
     4    12     5    1
     5    17    16    1
     6    18    16    1
     7    10     8    1
     8    16     6    1
     9    16    19    1
    10     5     6    1
    11     5     4    1
    12     6     7    2
    13     8     4    1
    14     8     9    1
    15     8    11    1
    16     4     3    1
    17    23    20    1
    18     7     3    1
    19     7    20    1
    20     3     1    1
    21    20    22    1
    22    20    21    1
    23    55    54    1
    24    57    54    1
    25     1    54    1
    26     1     2    1
    27     1    58    1
    28    40    38    1
    29    54    56    1
    30     2    24    1
    31    39    38    1
    32    37    36    1
    33    60    58    1
    34    38    36    1
    35    38    27    1
    36    58    61    1
    37    58    59    1
    38    36    33    1
    39    36    45    1
    40    26    24    1
    41    24    27    1
    42    24    25    1
    43    34    33    1
    44    27    28    1
    45    27    29    1
    46    33    35    1
    47    33    31    1
    48    52    50    1
    49    48    46    1
    50    53    50    1
    51    45    50    1
    52    45    46    1
    53    45    31    1
    54    50    51    1
    55    47    46    1
    56    46    49    1
    57    31    29    1
    58    31    32    1
    59    29    30    1
    60    29    41    1
    61    42    41    1
    62    43    41    1
    63    41    44    1
