@<TRIPOS>MOLECULE
2,3,4,5,6,7
 48 49 0 0 0
SMALL
GASTEIGER

@<TRIPOS>ATOM
      1 SI          3.8144   12.1585   10.8845 Si      1  UNL1        0.0000
      2 N           3.1653   12.7357   12.3880 N.3     1  UNL1        0.0000
      3 C           2.0616   11.6300   10.3604 C.3     1  UNL1        0.0000
      4 C           1.0667   12.6131   10.0795 C.3     1  UNL1        0.0000
      5 C          -0.1843   12.1441   10.5412 C.2     1  UNL1        0.0000
      6 C           0.0163   10.8612   11.1246 C.2     1  UNL1        0.0000
      7 C           1.3966   10.5504   11.0200 C.3     1  UNL1        0.0000
      8 C           1.2889   13.9088    9.3541 C.3     1  UNL1        0.0000
      9 H           1.6351   14.6926   10.0345 H       1  UNL1        0.0000
     10 H           0.3625   14.2485    8.8914 H       1  UNL1        0.0000
     11 H           2.0376   13.7796    8.5746 H       1  UNL1        0.0000
     12 C          -1.5096   12.8194   10.3249 C.3     1  UNL1        0.0000
     13 H          -1.4740   13.8649   10.6387 H       1  UNL1        0.0000
     14 H          -2.2985   12.3179   10.8835 H       1  UNL1        0.0000
     15 H          -1.7777   12.7936    9.2656 H       1  UNL1        0.0000
     16 C          -1.0853    9.9476   11.5862 C.3     1  UNL1        0.0000
     17 H          -1.7343   10.4412   12.3112 H       1  UNL1        0.0000
     18 H          -0.6816    9.0496   12.0504 H       1  UNL1        0.0000
     19 H          -1.6999    9.6427   10.7355 H       1  UNL1        0.0000
     20 C           2.0332    9.2334   11.3680 C.3     1  UNL1        0.0000
     21 H           2.8521    9.0309   10.6813 H       1  UNL1        0.0000
     22 H           1.3104    8.4222   11.2809 H       1  UNL1        0.0000
     23 H           2.4322    9.2277   12.3852 H       1  UNL1        0.0000
     24 C           4.6444   13.4118    9.6965 C.3     1  UNL1        0.0000
     25 H           4.5882   13.0714    8.6676 H       1  UNL1        0.0000
     26 H           5.6942   13.5208    9.9464 H       1  UNL1        0.0000
     27 H           4.1967   14.3973    9.7536 H       1  UNL1        0.0000
     28 C           5.0833   10.7286   11.0620 C.3     1  UNL1        0.0000
     29 H           6.0774   11.1344   11.2199 H       1  UNL1        0.0000
     30 H           5.1243   10.1292   10.1590 H       1  UNL1        0.0000
     31 H           4.8566   10.0701   11.8938 H       1  UNL1        0.0000
     32 C           3.8538   13.4922   13.4200 C.3     1  UNL1        0.0000
     33 H           3.0856   13.9029   14.1036 H       1  UNL1        0.0000
     34 C           4.5736   14.6623   12.7787 C.ar    1  UNL1        0.0000
     35 C           5.9483   14.7064   12.5904 C.ar    1  UNL1        0.0000
     36 H           6.5770   13.9073   12.9501 H       1  UNL1        0.0000
     37 C           6.5354   15.7790   11.9390 C.ar    1  UNL1        0.0000
     38 H           7.6074   15.8000   11.8038 H       1  UNL1        0.0000
     39 C           5.7590   16.8184   11.4603 C.ar    1  UNL1        0.0000
     40 H           6.2198   17.6520   10.9510 H       1  UNL1        0.0000
     41 C           4.3860   16.7829   11.6414 C.ar    1  UNL1        0.0000
     42 H           3.7708   17.5916   11.2741 H       1  UNL1        0.0000
     43 C           3.8011   15.7155   12.2965 C.ar    1  UNL1        0.0000
     44 H           2.7289   15.6914   12.4415 H       1  UNL1        0.0000
     45 C           4.7755   12.5871   14.2468 C.3     1  UNL1        0.0000
     46 H           5.3150   13.1720   14.9883 H       1  UNL1        0.0000
     47 H           5.4814   12.0763   13.5977 H       1  UNL1        0.0000
     48 H           4.1774   11.8356   14.7597 H       1  UNL1        0.0000
@<TRIPOS>BOND
     1    11     8    1
     2    25    24    1
     3    10     8    1
     4    15    12    1
     5     8     9    1
     6     8     4    1
     7    24    27    1
     8    24    26    1
     9    24     1    1
    10     4     3    1
    11     4     5    1
    12    30    28    1
    13    12     5    1
    14    12    13    1
    15    12    14    1
    16     3     1    1
    17     3     7    1
    18     5     6    2
    19    21    20    1
    20    19    16    1
    21     1    28    1
    22     1     2    1
    23    40    39    1
    24     7     6    1
    25     7    20    1
    26    28    29    1
    27    28    31    1
    28     6    16    1
    29    42    41    1
    30    22    20    1
    31    20    23    1
    32    39    41   ar
    33    39    37   ar
    34    16    18    1
    35    16    17    1
    36    41    43   ar
    37    38    37    1
    38    37    35   ar
    39    43    44    1
    40    43    34   ar
    41     2    32    1
    42    35    34   ar
    43    35    36    1
    44    34    32    1
    45    32    33    1
    46    32    45    1
    47    47    45    1
    48    45    48    1
    49    45    46    1
