@<TRIPOS>MOLECULE
2,3,4,7,9
 47 50 0 0 0
SMALL
GASTEIGER

@<TRIPOS>ATOM
      1 SI          4.7286    4.4595    5.9360 Si      1  UNL1        0.0000
      2 N           5.3725    4.0056    4.3942 N.pl3   1  UNL1        0.0000
      3 C           5.2703    0.5102    6.2719 C.2     1  UNL1        0.0000
      4 C           5.6061    1.8163    6.6511 C.3     1  UNL1        0.0000
      5 H           6.5150    2.1333    7.1459 H       1  UNL1        0.0000
      6 C           4.4660    2.6469    6.4224 C.3     1  UNL1        0.0000
      7 C           3.4158    1.8173    5.9208 C.3     1  UNL1        0.0000
      8 H           2.3861    2.1289    5.7883 H       1  UNL1        0.0000
      9 C           3.9158    0.5054    5.8271 C.2     1  UNL1        0.0000
     10 C           3.4792   -0.9375    5.8467 C.3     1  UNL1        0.0000
     11 H           2.5932   -1.2072    5.2708 H       1  UNL1        0.0000
     12 C           3.3875   -1.3240    7.3435 C.3     1  UNL1        0.0000
     13 H           2.7769   -0.6116    7.8962 H       1  UNL1        0.0000
     14 H           2.9437   -2.3140    7.4534 H       1  UNL1        0.0000
     15 C           4.8573   -1.3175    7.8139 C.3     1  UNL1        0.0000
     16 H           5.1638   -2.3048    8.1601 H       1  UNL1        0.0000
     17 H           5.0278   -0.6035    8.6181 H       1  UNL1        0.0000
     18 C           5.6430   -0.9228    6.5403 C.3     1  UNL1        0.0000
     19 H           6.7052   -1.1629    6.5729 H       1  UNL1        0.0000
     20 C           4.8018   -1.6247    5.4617 C.3     1  UNL1        0.0000
     21 H           4.7678   -2.7072    5.5882 H       1  UNL1        0.0000
     22 H           5.1373   -1.3747    4.4543 H       1  UNL1        0.0000
     23 C           3.1230    5.5195    6.0265 C.3     1  UNL1        0.0000
     24 H           3.2775    6.3720    6.6795 H       1  UNL1        0.0000
     25 H           2.2865    4.9556    6.4267 H       1  UNL1        0.0000
     26 H           2.8285    5.9049    5.0558 H       1  UNL1        0.0000
     27 C           6.0121    5.3404    7.0540 C.3     1  UNL1        0.0000
     28 H           5.6013    5.5531    8.0349 H       1  UNL1        0.0000
     29 H           6.3136    6.2838    6.6098 H       1  UNL1        0.0000
     30 H           6.9066    4.7429    7.1909 H       1  UNL1        0.0000
     31 C           6.0051    4.8094    3.4766 C.ar    1  UNL1        0.0000
     32 C           7.0065    4.2595    2.6562 C.ar    1  UNL1        0.0000
     33 H           7.2774    3.2089    2.7837 H       1  UNL1        0.0000
     34 C           7.6771    5.0377    1.7260 C.ar    1  UNL1        0.0000
     35 C           7.3486    6.3803    1.5937 C.ar    1  UNL1        0.0000
     36 H           7.8657    6.9901    0.8670 H       1  UNL1        0.0000
     37 C           6.3723    6.9546    2.3999 C.ar    1  UNL1        0.0000
     38 C           5.7174    6.1734    3.3336 C.ar    1  UNL1        0.0000
     39 H           4.9661    6.6107    3.9752 H       1  UNL1        0.0000
     40 C           8.7449    4.4288    0.8640 C.3     1  UNL1        0.0000
     41 H           9.4815    5.1755    0.5765 H       1  UNL1        0.0000
     42 H           8.3066    4.0243   -0.0497 H       1  UNL1        0.0000
     43 H           9.2488    3.6197    1.3885 H       1  UNL1        0.0000
     44 C           6.0356    8.4089    2.2455 C.3     1  UNL1        0.0000
     45 H           5.3876    8.7466    3.0506 H       1  UNL1        0.0000
     46 H           5.5241    8.5778    1.2976 H       1  UNL1        0.0000
     47 H           6.9410    9.0137    2.2463 H       1  UNL1        0.0000
@<TRIPOS>BOND
     1    42    40    1
     2    41    40    1
     3    40    43    1
     4    40    34    1
     5    36    35    1
     6    46    44    1
     7    35    34   ar
     8    35    37   ar
     9    34    32   ar
    10    44    47    1
    11    44    37    1
    12    44    45    1
    13    37    38   ar
    14    32    33    1
    15    32    31   ar
    16    38    31   ar
    17    38    39    1
    18    31     2    1
    19     2     1    1
    20    22    20    1
    21    26    23    1
    22    11    10    1
    23    20    21    1
    24    20    10    1
    25    20    18    1
    26     8     7    1
    27     9    10    1
    28     9     7    1
    29     9     3    2
    30    10    12    1
    31     7     6    1
    32     1    23    1
    33     1     6    1
    34     1    27    1
    35    23    25    1
    36    23    24    1
    37     3    18    1
    38     3     4    1
    39     6     4    1
    40    18    19    1
    41    18    15    1
    42    29    27    1
    43     4     5    1
    44    27    30    1
    45    27    28    1
    46    12    14    1
    47    12    15    1
    48    12    13    1
    49    15    16    1
    50    15    17    1
