@<TRIPOS>MOLECULE
2,3,4,6,7,9
 47 50 0 0 0
SMALL
GASTEIGER

@<TRIPOS>ATOM
      1 SI          6.7175   -0.0131    2.2708 Si      1  UNL1        0.0000
      2 N           6.9378    0.8874    3.7332 N.pl3   1  UNL1        0.0000
      3 C           3.0543    1.6008    2.8077 C.2     1  UNL1        0.0000
      4 C           3.8312    0.4339    2.6865 C.3     1  UNL1        0.0000
      5 H           3.5290   -0.5749    2.9434 H       1  UNL1        0.0000
      6 C           5.0213    0.7776    1.9737 C.3     1  UNL1        0.0000
      7 C           4.9481    2.1667    1.6468 C.3     1  UNL1        0.0000
      8 H           5.6422    2.6896    1.0016 H       1  UNL1        0.0000
      9 C           3.7502    2.6697    2.1712 C.2     1  UNL1        0.0000
     10 C           2.7495    3.7737    1.9611 C.3     1  UNL1        0.0000
     11 H           3.1422    4.7759    1.7921 H       1  UNL1        0.0000
     12 C           1.8028    3.2604    0.8497 C.3     1  UNL1        0.0000
     13 H           2.3641    2.9293   -0.0224 H       1  UNL1        0.0000
     14 H           1.1175    4.0491    0.5383 H       1  UNL1        0.0000
     15 C           1.0445    2.1002    1.5286 C.3     1  UNL1        0.0000
     16 H           1.2046    1.1515    1.0185 H       1  UNL1        0.0000
     17 H          -0.0277    2.2961    1.5602 H       1  UNL1        0.0000
     18 C           1.6294    2.0684    2.9622 C.3     1  UNL1        0.0000
     19 H           0.9981    1.5436    3.6802 H       1  UNL1        0.0000
     20 C           1.8630    3.5711    3.2008 C.3     1  UNL1        0.0000
     21 H           0.9417    4.1530    3.1628 H       1  UNL1        0.0000
     22 H           2.4007    3.7793    4.1267 H       1  UNL1        0.0000
     23 C           6.6635   -1.9376    2.3312 C.3     1  UNL1        0.0000
     24 H           5.6709   -2.3226    2.1208 H       1  UNL1        0.0000
     25 H           6.9724   -2.3284    3.2952 H       1  UNL1        0.0000
     26 H           7.3333   -2.3513    1.5851 H       1  UNL1        0.0000
     27 C           7.9871    0.4424    0.9093 C.3     1  UNL1        0.0000
     28 H           7.7791   -0.0840   -0.0159 H       1  UNL1        0.0000
     29 H           8.9906    0.1740    1.2245 H       1  UNL1        0.0000
     30 H           7.9852    1.5053    0.6946 H       1  UNL1        0.0000
     31 C           8.0829    1.0123    4.4823 C.ar    1  UNL1        0.0000
     32 C           9.0568    0.0076    4.5577 C.ar    1  UNL1        0.0000
     33 H           8.8994   -0.9042    3.9998 H       1  UNL1        0.0000
     34 C          10.1982    0.1653    5.3216 C.ar    1  UNL1        0.0000
     35 C          10.3934    1.3511    6.0203 C.ar    1  UNL1        0.0000
     36 H          11.2871    1.4791    6.6139 H       1  UNL1        0.0000
     37 C           9.4611    2.3777    5.9481 C.ar    1  UNL1        0.0000
     38 C           8.3145    2.2062    5.1890 C.ar    1  UNL1        0.0000
     39 H           7.5900    3.0196    5.1059 H       1  UNL1        0.0000
     40 C          11.2184   -0.9320    5.4098 C.3     1  UNL1        0.0000
     41 H          12.2225   -0.5343    5.2718 H       1  UNL1        0.0000
     42 H          11.0361   -1.6950    4.6570 H       1  UNL1        0.0000
     43 H          11.1794   -1.4026    6.3928 H       1  UNL1        0.0000
     44 C           9.6873    3.6618    6.6923 C.3     1  UNL1        0.0000
     45 H           9.2606    3.5964    7.6944 H       1  UNL1        0.0000
     46 H           9.2180    4.4957    6.1745 H       1  UNL1        0.0000
     47 H          10.7506    3.8653    6.7971 H       1  UNL1        0.0000
@<TRIPOS>BOND
     1    13    12    1
     2    28    27    1
     3    14    12    1
     4    30    27    1
     5    12    15    1
     6    12    10    1
     7    27    29    1
     8    27     1    1
     9     8     7    1
    10    16    15    1
    11    15    17    1
    12    15    18    1
    13    26    23    1
    14     7     6    1
    15     7     9    1
    16    11    10    1
    17    10     9    1
    18    10    20    1
    19     6     1    1
    20     6     4    1
    21    24    23    1
    22     9     3    2
    23     1    23    1
    24     1     2    1
    25    23    25    1
    26     4     3    1
    27     4     5    1
    28     3    18    1
    29    18    20    1
    30    18    19    1
    31    21    20    1
    32    20    22    1
    33     2    31    1
    34    33    32    1
    35    31    32   ar
    36    31    38   ar
    37    32    34   ar
    38    42    40    1
    39    39    38    1
    40    38    37   ar
    41    41    40    1
    42    34    40    1
    43    34    35   ar
    44    40    43    1
    45    37    35   ar
    46    37    44    1
    47    35    36    1
    48    46    44    1
    49    44    47    1
    50    44    45    1
