@<TRIPOS>MOLECULE
3,4,5,8,10,12
 48 48 0 0 0
SMALL
GASTEIGER

@<TRIPOS>ATOM
      1 SI          6.5921    2.4164   12.7564 Si      1  UNL1        0.0000
      2 SI          7.4272    2.5651    7.0496 Si      1  UNL1        0.0000
      3 N           8.6503    3.5498    7.7647 N.3     1  UNL1        0.0000
      4 C           6.9826    1.8570   11.0074 C.3     1  UNL1        0.0000
      5 C           7.7012    0.6105    9.2204 C.2     1  UNL1        0.0000
      6 H           8.0808   -0.2135    8.6264 H       1  UNL1        0.0000
      7 C           9.3414    4.6380    7.0800 C.3     1  UNL1        0.0000
      8 C           6.5754    2.4976    9.8069 C.3     1  UNL1        0.0000
      9 H           5.9623    3.3925    9.7497 H       1  UNL1        0.0000
     10 C           7.6637    0.6734   10.6221 C.2     1  UNL1        0.0000
     11 H           7.9940   -0.1017   11.3036 H       1  UNL1        0.0000
     12 C           7.0062    1.7292    8.6941 C.3     1  UNL1        0.0000
     13 C          10.5936    4.1147    6.3477 C.3     1  UNL1        0.0000
     14 H          11.3328    3.7422    7.0515 H       1  UNL1        0.0000
     15 H          11.0462    4.9106    5.7603 H       1  UNL1        0.0000
     16 H          10.3080    3.3066    5.6779 H       1  UNL1        0.0000
     17 C           9.7446    5.7165    8.1025 C.3     1  UNL1        0.0000
     18 H           8.8475    6.1552    8.5403 H       1  UNL1        0.0000
     19 H          10.3131    6.5049    7.6119 H       1  UNL1        0.0000
     20 H          10.3503    5.2945    8.9085 H       1  UNL1        0.0000
     21 C           8.4413    5.3166    6.0357 C.3     1  UNL1        0.0000
     22 H           8.2222    4.6309    5.2230 H       1  UNL1        0.0000
     23 H           8.9374    6.1936    5.6261 H       1  UNL1        0.0000
     24 H           7.5078    5.6248    6.4967 H       1  UNL1        0.0000
     25 C           8.2118    2.6791   13.7480 C.3     1  UNL1        0.0000
     26 H           8.9070    3.3149   13.2037 H       1  UNL1        0.0000
     27 H           8.7077    1.7379   13.9723 H       1  UNL1        0.0000
     28 H           8.0008    3.1641   14.6961 H       1  UNL1        0.0000
     29 C           5.5913    1.0147   13.6292 C.3     1  UNL1        0.0000
     30 H           4.6601    0.8469   13.0907 H       1  UNL1        0.0000
     31 H           6.1637    0.0883   13.5978 H       1  UNL1        0.0000
     32 C           8.0837    1.2646    5.7915 C.3     1  UNL1        0.0000
     33 H           8.2820    1.7176    4.8256 H       1  UNL1        0.0000
     34 H           7.3588    0.4738    5.6330 H       1  UNL1        0.0000
     35 H           9.0071    0.8061    6.1377 H       1  UNL1        0.0000
     36 C           5.5289    3.9973   12.7504 C.3     1  UNL1        0.0000
     37 H           5.2320    4.2585   13.7612 H       1  UNL1        0.0000
     38 H           4.6225    3.8643   12.1673 H       1  UNL1        0.0000
     39 H           6.0783    4.8352   12.3340 H       1  UNL1        0.0000
     40 C           5.8261    3.3177    6.3029 C.3     1  UNL1        0.0000
     41 H           5.4508    4.1377    6.9070 H       1  UNL1        0.0000
     42 H           5.0450    2.5656    6.2525 H       1  UNL1        0.0000
     43 H           5.9828    3.6921    5.2975 H       1  UNL1        0.0000
     44 C           5.3042    1.3749   15.0387 C.2     1  UNL1        0.0000
     45 H           6.1457    1.3064   15.7157 H       1  UNL1        0.0000
     46 C           4.1338    1.7932   15.4878 C.2     1  UNL1        0.0000
     47 H           3.2788    1.8763   14.8372 H       1  UNL1        0.0000
     48 H           3.9784    2.0675   16.5174 H       1  UNL1        0.0000
@<TRIPOS>BOND
     1    33    32    1
     2    22    21    1
     3    43    40    1
     4    23    21    1
     5    34    32    1
     6    16    13    1
     7    15    13    1
     8    32    35    1
     9    32     2    1
    10    21    24    1
    11    21     7    1
    12    42    40    1
    13    40    41    1
    14    40     2    1
    15    13    14    1
    16    13     7    1
    17     2     3    1
    18     2    12    1
    19     7     3    1
    20     7    17    1
    21    19    17    1
    22    17    18    1
    23    17    20    1
    24     6     5    1
    25    12     5    1
    26    12     8    1
    27     5    10    2
    28     9     8    1
    29     8     4    1
    30    10     4    1
    31    10    11    1
    32     4     1    1
    33    38    36    1
    34    39    36    1
    35    36     1    1
    36    36    37    1
    37     1    29    1
    38     1    25    1
    39    30    29    1
    40    26    25    1
    41    31    29    1
    42    29    44    1
    43    25    27    1
    44    25    28    1
    45    47    46    1
    46    44    46    2
    47    44    45    1
    48    46    48    1
