@<TRIPOS>MOLECULE
2,4,5,6,11,12
 46 47 0 0 0
SMALL
GASTEIGER

@<TRIPOS>ATOM
      1 SI          3.3470    0.9440    9.7362 Si      1  UNL1        0.0000
      2 N           1.6386    0.6404    9.6170 N.3     1  UNL1        0.0000
      3 N           3.3801    4.1864    8.7060 N.pl3   1  UNL1        0.0000
      4 C           2.9831    2.6098   10.5851 C.3     1  UNL1        0.0000
      5 C           2.6929    3.8070    9.8553 C.2     1  UNL1        0.0000
      6 C           1.6321    4.5050   10.4777 C.2     1  UNL1        0.0000
      7 C           0.4443    4.1359   12.7511 C.ar    1  UNL1        0.0000
      8 C           0.3442    3.2571   13.8031 C.ar    1  UNL1        0.0000
      9 C           1.0953    2.0720   13.8371 C.ar    1  UNL1        0.0000
     10 C           1.9827    1.7552   12.8341 C.ar    1  UNL1        0.0000
     11 C           2.1273    2.6354   11.7481 C.ar    1  UNL1        0.0000
     12 C           1.3155    3.8280   11.6938 C.ar    1  UNL1        0.0000
     13 C           4.4254   -0.2159   10.8191 C.3     1  UNL1        0.0000
     14 C           4.1396    1.0909    8.0011 C.3     1  UNL1        0.0000
     15 C           0.9247   -0.5996    9.3899 C.3     1  UNL1        0.0000
     16 C           0.4163   -1.1164   10.7486 C.3     1  UNL1        0.0000
     17 C          -0.2668   -0.3502    8.4471 C.3     1  UNL1        0.0000
     18 C           1.8297   -1.6596    8.7491 C.3     1  UNL1        0.0000
     19 C           2.8449    5.2992    7.9520 C.3     1  UNL1        0.0000
     20 C           4.8255    4.2213    8.8115 C.3     1  UNL1        0.0000
     21 H           1.2548    5.4805   10.1979 H       1  UNL1        0.0000
     22 H          -0.1347    5.0504   12.7319 H       1  UNL1        0.0000
     23 H          -0.3235    3.4771   14.6230 H       1  UNL1        0.0000
     24 H           0.9781    1.4055   14.6793 H       1  UNL1        0.0000
     25 H           2.5927    0.8635   12.8948 H       1  UNL1        0.0000
     26 H           4.9482   -0.9362   10.1994 H       1  UNL1        0.0000
     27 H           3.8365   -0.7700   11.5423 H       1  UNL1        0.0000
     28 H           5.1745    0.3456   11.3677 H       1  UNL1        0.0000
     29 H           4.1189    0.1335    7.4905 H       1  UNL1        0.0000
     30 H           5.1758    1.4042    8.0518 H       1  UNL1        0.0000
     31 H           3.5913    1.8075    7.3950 H       1  UNL1        0.0000
     32 H          -0.1769   -0.3415   11.2386 H       1  UNL1        0.0000
     33 H           1.2617   -1.3642   11.3879 H       1  UNL1        0.0000
     34 H          -0.1974   -2.0040   10.6153 H       1  UNL1        0.0000
     35 H          -0.9833    0.3380    8.9040 H       1  UNL1        0.0000
     36 H           0.0916    0.0791    7.5095 H       1  UNL1        0.0000
     37 H          -0.7758   -1.2877    8.2314 H       1  UNL1        0.0000
     38 H           2.6818   -1.8700    9.3880 H       1  UNL1        0.0000
     39 H           2.1883   -1.3049    7.7867 H       1  UNL1        0.0000
     40 H           1.2716   -2.5802    8.5971 H       1  UNL1        0.0000
     41 H           3.3675    5.3479    6.9968 H       1  UNL1        0.0000
     42 H           2.9728    6.2622    8.4665 H       1  UNL1        0.0000
     43 H           1.7863    5.1269    7.7574 H       1  UNL1        0.0000
     44 H           5.1633    3.4398    9.4864 H       1  UNL1        0.0000
     45 H           5.2649    4.0619    7.8265 H       1  UNL1        0.0000
     46 H           5.1732    5.1912    9.1943 H       1  UNL1        0.0000
@<TRIPOS>BOND
     1    41    19    1
     2    31    14    1
     3    29    14    1
     4    36    17    1
     5    43    19    1
     6    39    18    1
     7    45    20    1
     8    19    42    1
     9    19     3    1
    10    14    30    1
    11    14     1    1
    12    37    17    1
    13    17    35    1
    14    17    15    1
    15    40    18    1
    16     3    20    1
    17     3     5    1
    18    18    38    1
    19    18    15    1
    20    20    46    1
    21    20    44    1
    22    15     2    1
    23    15    16    1
    24     2     1    1
    25     1     4    1
    26     1    13    1
    27     5     6    2
    28     5     4    1
    29    21     6    1
    30    26    13    1
    31     6    12    1
    32     4    11    1
    33    34    16    1
    34    16    32    1
    35    16    33    1
    36    13    28    1
    37    13    27    1
    38    12    11   ar
    39    12     7   ar
    40    11    10   ar
    41    22     7    1
    42     7     8   ar
    43    10    25    1
    44    10     9   ar
    45     8     9   ar
    46     8    23    1
    47     9    24    1
