@<TRIPOS>MOLECULE
3,5,6,11,12
 45 46 0 0 0
SMALL
GASTEIGER

@<TRIPOS>ATOM
      1 SI          2.7490    0.8308    9.5218 Si      1  UNL1        0.0000
      2 O           3.5338    3.8574    9.5218 O.2     1  UNL1        0.0000
      3 N           1.3209    1.5228    8.7926 N.3     1  UNL1        0.0000
      4 C           2.6375    2.1060   10.9240 C.3     1  UNL1        0.0000
      5 C           2.7413    3.4812   10.5612 C.2     1  UNL1        0.0000
      6 C           1.8960    4.2766   11.3601 C.2     1  UNL1        0.0000
      7 C           0.3642    3.6427   13.3493 C.ar    1  UNL1        0.0000
      8 C          -0.0718    2.5789   14.1029 C.ar    1  UNL1        0.0000
      9 C           0.3776    1.2736   13.8493 C.ar    1  UNL1        0.0000
     10 C           1.2646    1.0035   12.8347 C.ar    1  UNL1        0.0000
     11 C           1.7186    2.0594   12.0276 C.ar    1  UNL1        0.0000
     12 C           1.2623    3.4015   12.2984 C.ar    1  UNL1        0.0000
     13 C           2.4754   -0.9681   10.1173 C.3     1  UNL1        0.0000
     14 C           4.4100    0.9363    8.5802 C.3     1  UNL1        0.0000
     15 C           0.7970    1.2984    7.4586 C.3     1  UNL1        0.0000
     16 C          -0.7385    1.4047    7.4667 C.3     1  UNL1        0.0000
     17 C           1.1735   -0.0968    6.9438 C.3     1  UNL1        0.0000
     18 C           1.3901    2.3702    6.5271 C.3     1  UNL1        0.0000
     19 C           3.4077    5.1948    9.0543 C.3     1  UNL1        0.0000
     20 C           4.2262    5.3166    7.7788 C.3     1  UNL1        0.0000
     21 H           1.8464    5.3583   11.3832 H       1  UNL1        0.0000
     22 H           0.0326    4.6510   13.5622 H       1  UNL1        0.0000
     23 H          -0.7668    2.7450   14.9125 H       1  UNL1        0.0000
     24 H           0.0173    0.4693   14.4737 H       1  UNL1        0.0000
     25 H           1.6245   -0.0016   12.6660 H       1  UNL1        0.0000
     26 H           2.6813   -1.6722    9.3184 H       1  UNL1        0.0000
     27 H           1.4505   -1.1227   10.4438 H       1  UNL1        0.0000
     28 H           3.1370   -1.2135   10.9411 H       1  UNL1        0.0000
     29 H           4.6132    1.9474    8.2456 H       1  UNL1        0.0000
     30 H           4.4242    0.2791    7.7169 H       1  UNL1        0.0000
     31 H           5.2241    0.6336    9.2305 H       1  UNL1        0.0000
     32 H          -1.0597    2.4089    7.7563 H       1  UNL1        0.0000
     33 H          -1.1536    0.6833    8.1728 H       1  UNL1        0.0000
     34 H          -1.1313    1.1906    6.4744 H       1  UNL1        0.0000
     35 H           0.7925   -0.8538    7.6237 H       1  UNL1        0.0000
     36 H           2.2521   -0.1984    6.8726 H       1  UNL1        0.0000
     37 H           0.7426   -0.2588    5.9589 H       1  UNL1        0.0000
     38 H           1.1438    3.3624    6.9104 H       1  UNL1        0.0000
     39 H           0.9912    2.2683    5.5207 H       1  UNL1        0.0000
     40 H           2.4728    2.2634    6.4944 H       1  UNL1        0.0000
     41 H           3.7829    5.8909    9.8178 H       1  UNL1        0.0000
     42 H           2.3490    5.4189    8.8500 H       1  UNL1        0.0000
     43 H           4.1706    6.3331    7.4001 H       1  UNL1        0.0000
     44 H           3.8379    4.6355    7.0259 H       1  UNL1        0.0000
     45 H           5.2653    5.0663    7.9771 H       1  UNL1        0.0000
@<TRIPOS>BOND
     1    39    18    1
     2    37    17    1
     3    34    16    1
     4    40    18    1
     5    18    38    1
     6    18    15    1
     7    36    17    1
     8    17    15    1
     9    17    35    1
    10    44    20    1
    11    43    20    1
    12    15    16    1
    13    15     3    1
    14    16    32    1
    15    16    33    1
    16    30    14    1
    17    20    45    1
    18    20    19    1
    19    29    14    1
    20    14    31    1
    21    14     1    1
    22     3     1    1
    23    42    19    1
    24    19     2    1
    25    19    41    1
    26    26    13    1
    27     1    13    1
    28     1     4    1
    29     2     5    1
    30    13    27    1
    31    13    28    1
    32     5     4    1
    33     5     6    2
    34     4    11    1
    35     6    21    1
    36     6    12    1
    37    11    12   ar
    38    11    10   ar
    39    12     7   ar
    40    25    10    1
    41    10     9   ar
    42     7    22    1
    43     7     8   ar
    44     9     8   ar
    45     9    24    1
    46     8    23    1
