@<TRIPOS>MOLECULE
3,4,5,6,11,12
 42 43 0 0 0
SMALL
GASTEIGER

@<TRIPOS>ATOM
      1 SI         16.9421    6.9196   10.0056 Si      1  UNL1        0.0000
      2 O          19.0034   11.5608   11.4767 O.2     1  UNL1        0.0000
      3 N          16.1024    7.4477   11.4362 N.3     1  UNL1        0.0000
      4 C          18.3537    8.1218   10.4129 C.3     1  UNL1        0.0000
      5 C          18.1355    9.5300   10.2822 C.2     1  UNL1        0.0000
      6 C          18.8581   10.2220   11.2718 C.2     1  UNL1        0.0000
      7 C          20.4597    9.3912   13.1326 C.ar    1  UNL1        0.0000
      8 C          21.0000    8.2555   13.6794 C.ar    1  UNL1        0.0000
      9 C          20.6779    6.9794   13.1793 C.ar    1  UNL1        0.0000
     10 C          19.8174    6.8150   12.1236 C.ar    1  UNL1        0.0000
     11 C          19.2375    7.9534   11.5282 C.ar    1  UNL1        0.0000
     12 C          19.5627    9.2565   12.0587 C.ar    1  UNL1        0.0000
     13 C          17.4654    5.0799    9.9541 C.3     1  UNL1        0.0000
     14 C          16.1460    7.3841    8.3247 C.3     1  UNL1        0.0000
     15 C          14.7358    7.1311   11.8146 C.3     1  UNL1        0.0000
     16 C          14.4102    5.6685   11.4843 C.3     1  UNL1        0.0000
     17 C          13.7775    8.0565   11.0446 C.3     1  UNL1        0.0000
     18 C          14.5412    7.3411   13.3253 C.3     1  UNL1        0.0000
     19 C          18.2573   12.4131   10.6337 C.3     1  UNL1        0.0000
     20 H          17.5669    9.9853    9.4789 H       1  UNL1        0.0000
     21 H          20.7128   10.3757   13.5011 H       1  UNL1        0.0000
     22 H          21.6898    8.3323   14.5064 H       1  UNL1        0.0000
     23 H          21.1299    6.1139   13.6413 H       1  UNL1        0.0000
     24 H          19.6041    5.8312   11.7287 H       1  UNL1        0.0000
     25 H          18.3911    4.9591    9.4012 H       1  UNL1        0.0000
     26 H          17.6121    4.6749   10.9505 H       1  UNL1        0.0000
     27 H          16.7118    4.4758    9.4610 H       1  UNL1        0.0000
     28 H          15.7456    8.3938    8.3340 H       1  UNL1        0.0000
     29 H          16.8761    7.3214    7.5244 H       1  UNL1        0.0000
     30 H          15.3349    6.7083    8.0744 H       1  UNL1        0.0000
     31 H          15.1159    5.0120   11.9865 H       1  UNL1        0.0000
     32 H          14.4751    5.4991   10.4132 H       1  UNL1        0.0000
     33 H          13.4040    5.4250   11.8154 H       1  UNL1        0.0000
     34 H          13.8275    7.8407    9.9806 H       1  UNL1        0.0000
     35 H          14.0640    9.0962   11.2074 H       1  UNL1        0.0000
     36 H          12.7554    7.9127   11.3858 H       1  UNL1        0.0000
     37 H          14.7030    8.3890   13.5943 H       1  UNL1        0.0000
     38 H          15.2440    6.7172   13.8806 H       1  UNL1        0.0000
     39 H          13.5276    7.0654   13.6104 H       1  UNL1        0.0000
     40 H          18.5597   12.2952    9.5874 H       1  UNL1        0.0000
     41 H          17.1822   12.2245   10.7324 H       1  UNL1        0.0000
     42 H          18.4812   13.4261   10.9635 H       1  UNL1        0.0000
@<TRIPOS>BOND
     1    29    14    1
     2    30    14    1
     3    14    28    1
     4    14     1    1
     5    25    13    1
     6    27    13    1
     7    20     5    1
     8    40    19    1
     9    13     1    1
    10    13    26    1
    11    34    17    1
    12     1     4    1
    13     1     3    1
    14     5     4    1
    15     5     6    2
    16     4    11    1
    17    32    16    1
    18    19    41    1
    19    19    42    1
    20    19     2    1
    21    17    35    1
    22    17    36    1
    23    17    15    1
    24     6     2    1
    25     6    12    1
    26     3    15    1
    27    16    15    1
    28    16    33    1
    29    16    31    1
    30    11    12   ar
    31    11    10   ar
    32    24    10    1
    33    15    18    1
    34    12     7   ar
    35    10     9   ar
    36     7    21    1
    37     7     8   ar
    38     9    23    1
    39     9     8   ar
    40    18    37    1
    41    18    39    1
    42    18    38    1
    43     8    22    1
