@<TRIPOS>MOLECULE
2,3,4,6,7
 43 45 0 0 0
SMALL
GASTEIGER

@<TRIPOS>ATOM
      1 SI          2.9784    3.5778    6.5301 Si      1  UNL1        0.0000
      2 N           2.3150    3.7764    4.9563 N.3     1  UNL1        0.0000
      3 C           5.0108    6.8236    5.3667 C.2     1  UNL1        0.0000
      4 C           4.1335    6.2099    6.2697 C.2     1  UNL1        0.0000
      5 C           4.3918    4.8091    6.2437 C.3     1  UNL1        0.0000
      6 C           5.4526    4.5747    5.3145 C.3     1  UNL1        0.0000
      7 C           5.8230    5.8193    4.7694 C.3     1  UNL1        0.0000
      8 C           6.9318    6.5525    4.0568 C.3     1  UNL1        0.0000
      9 C           7.8311    7.1470    5.1676 C.3     1  UNL1        0.0000
     10 C           6.9452    8.2339    5.8117 C.3     1  UNL1        0.0000
     11 C           5.6265    8.1494    5.0070 C.3     1  UNL1        0.0000
     12 C           6.1685    7.8128    3.6069 C.3     1  UNL1        0.0000
     13 C           1.9023    4.1388    8.0223 C.3     1  UNL1        0.0000
     14 C           3.6562    1.8427    7.0097 C.3     1  UNL1        0.0000
     15 C           1.0726    3.2313    4.4445 C.3     1  UNL1        0.0000
     16 C          -0.1411    3.9734    5.0390 C.3     1  UNL1        0.0000
     17 C           1.0595    3.4270    2.9141 C.3     1  UNL1        0.0000
     18 C           0.9281    1.7330    4.7584 C.3     1  UNL1        0.0000
     19 H           3.4295    6.6971    6.9363 H       1  UNL1        0.0000
     20 H           5.9383    3.6168    5.1617 H       1  UNL1        0.0000
     21 H           7.4822    6.0172    3.2845 H       1  UNL1        0.0000
     22 H           8.1268    6.3818    5.8838 H       1  UNL1        0.0000
     23 H           8.7344    7.5804    4.7370 H       1  UNL1        0.0000
     24 H           6.7716    8.0480    6.8704 H       1  UNL1        0.0000
     25 H           7.3950    9.2217    5.7063 H       1  UNL1        0.0000
     26 H           4.9999    9.0380    5.0907 H       1  UNL1        0.0000
     27 H           6.8256    8.5862    3.2077 H       1  UNL1        0.0000
     28 H           5.3669    7.5933    2.8933 H       1  UNL1        0.0000
     29 H           2.5078    4.2706    8.9125 H       1  UNL1        0.0000
     30 H           1.1436    3.3983    8.2549 H       1  UNL1        0.0000
     31 H           1.3968    5.0790    7.8226 H       1  UNL1        0.0000
     32 H           2.8517    1.1719    7.2915 H       1  UNL1        0.0000
     33 H           4.3317    1.9126    7.8559 H       1  UNL1        0.0000
     34 H           4.1982    1.3772    6.1932 H       1  UNL1        0.0000
     35 H          -1.0688    3.5967    4.6136 H       1  UNL1        0.0000
     36 H          -0.0640    5.0399    4.8292 H       1  UNL1        0.0000
     37 H          -0.1674    3.8324    6.1154 H       1  UNL1        0.0000
     38 H           0.1170    3.0748    2.4964 H       1  UNL1        0.0000
     39 H           1.8751    2.8661    2.4545 H       1  UNL1        0.0000
     40 H           1.1758    4.4940    2.6913 H       1  UNL1        0.0000
     41 H           0.0380    1.3272    4.2831 H       1  UNL1        0.0000
     42 H           0.8490    1.5865    5.8315 H       1  UNL1        0.0000
     43 H           1.7989    1.1905    4.4015 H       1  UNL1        0.0000
@<TRIPOS>BOND
     1    39    17    1
     2    38    17    1
     3    40    17    1
     4    28    12    1
     5    17    15    1
     6    27    12    1
     7    21     8    1
     8    12     8    1
     9    12    11    1
    10     8     7    1
    11     8     9    1
    12    41    18    1
    13    43    18    1
    14    15    18    1
    15    15     2    1
    16    15    16    1
    17    35    16    1
    18    23     9    1
    19    18    42    1
    20     7     6    1
    21     7     3    1
    22    36    16    1
    23     2     1    1
    24    11    26    1
    25    11     3    1
    26    11    10    1
    27    16    37    1
    28    20     6    1
    29     9    10    1
    30     9    22    1
    31     6     5    1
    32     3     4    2
    33    25    10    1
    34    10    24    1
    35    34    14    1
    36     5     4    1
    37     5     1    1
    38     4    19    1
    39     1    14    1
    40     1    13    1
    41    14    32    1
    42    14    33    1
    43    31    13    1
    44    13    30    1
    45    13    29    1
