@<TRIPOS>MOLECULE
2,3,4,5,6,7
 44 44 0 0 0
SMALL
GASTEIGER

@<TRIPOS>ATOM
      1 SI          0.9245    8.0817    8.8473 Si      1  UNL1        0.0000
      2 C           2.3405    8.3657   11.4428 C.3     1  UNL1        0.0000
      3 C           4.1826    9.5522   10.7343 C.2     1  UNL1        0.0000
      4 N           0.6945    9.8127    8.9228 N.3     1  UNL1        0.0000
      5 C           3.5310    9.0179    9.5897 C.3     1  UNL1        0.0000
      6 C           3.4293    9.1759   11.8726 C.2     1  UNL1        0.0000
      7 C           2.4028    8.2451   10.0269 C.3     1  UNL1        0.0000
      8 C           4.1042    8.9540    8.2051 C.3     1  UNL1        0.0000
      9 C           5.5905   10.0681   10.7611 C.3     1  UNL1        0.0000
     10 C           3.8448    9.3898   13.2987 C.3     1  UNL1        0.0000
     11 C          -0.0043   10.5822    7.9061 C.3     1  UNL1        0.0000
     12 C           1.5438    7.4645   12.3396 C.3     1  UNL1        0.0000
     13 C          -0.5580   11.8970    8.4766 C.3     1  UNL1        0.0000
     14 C          -0.5649    7.0355    9.4591 C.3     1  UNL1        0.0000
     15 C           0.9824   10.9331    6.7771 C.3     1  UNL1        0.0000
     16 C          -1.1838    9.7921    7.3223 C.3     1  UNL1        0.0000
     17 C           1.4020    7.2179    7.1967 C.3     1  UNL1        0.0000
     18 H           4.1841    7.9122    7.8943 H       1  UNL1        0.0000
     19 H           5.0982    9.3913    8.1755 H       1  UNL1        0.0000
     20 H           3.4750    9.4737    7.4831 H       1  UNL1        0.0000
     21 H           5.7858   10.7613    9.9468 H       1  UNL1        0.0000
     22 H           6.2730    9.2217   10.6505 H       1  UNL1        0.0000
     23 H           5.8191   10.5521   11.7063 H       1  UNL1        0.0000
     24 H           4.3860   10.3274   13.4190 H       1  UNL1        0.0000
     25 H           4.5072    8.5810   13.6158 H       1  UNL1        0.0000
     26 H           2.9872    9.3949   13.9710 H       1  UNL1        0.0000
     27 H           0.6634    7.0895   11.8274 H       1  UNL1        0.0000
     28 H           1.2416    7.9473   13.2674 H       1  UNL1        0.0000
     29 H           2.1647    6.6067   12.6103 H       1  UNL1        0.0000
     30 H           0.2531   12.5141    8.8616 H       1  UNL1        0.0000
     31 H          -1.2882   11.6951    9.2595 H       1  UNL1        0.0000
     32 H          -1.0551   12.4599    7.6896 H       1  UNL1        0.0000
     33 H          -1.2728    6.8921    8.6499 H       1  UNL1        0.0000
     34 H          -1.1017    7.4913   10.2825 H       1  UNL1        0.0000
     35 H          -0.2361    6.0501    9.7713 H       1  UNL1        0.0000
     36 H           1.3085   10.0292    6.2694 H       1  UNL1        0.0000
     37 H           1.8480   11.4399    7.2049 H       1  UNL1        0.0000
     38 H           0.5149   11.5927    6.0501 H       1  UNL1        0.0000
     39 H          -0.8309    8.9117    6.7960 H       1  UNL1        0.0000
     40 H          -1.7388   10.4133    6.6237 H       1  UNL1        0.0000
     41 H          -1.8520    9.4777    8.1198 H       1  UNL1        0.0000
     42 H           2.0093    7.8304    6.5407 H       1  UNL1        0.0000
     43 H           0.5124    6.9292    6.6462 H       1  UNL1        0.0000
     44 H           1.9587    6.3079    7.3981 H       1  UNL1        0.0000
@<TRIPOS>BOND
     1    38    15    1
     2    36    15    1
     3    42    17    1
     4    40    16    1
     5    43    17    1
     6    15    37    1
     7    15    11    1
     8    39    16    1
     9    17    44    1
    10    17     1    1
    11    16    11    1
    12    16    41    1
    13    20     8    1
    14    32    13    1
    15    18     8    1
    16    11    13    1
    17    11     4    1
    18    19     8    1
    19     8     5    1
    20    13    30    1
    21    13    31    1
    22    33    14    1
    23     1     4    1
    24     1    14    1
    25     1     7    1
    26    14    35    1
    27    14    34    1
    28     5     7    1
    29     5     3    1
    30    21     9    1
    31     7     2    1
    32    22     9    1
    33     3     9    1
    34     3     6    2
    35     9    23    1
    36     2     6    1
    37     2    12    1
    38    27    12    1
    39     6    10    1
    40    12    29    1
    41    12    28    1
    42    10    24    1
    43    10    25    1
    44    10    26    1
