@<TRIPOS>MOLECULE
2,3,4,6,7,32
 40 42 0 0 0
SMALL
GASTEIGER

@<TRIPOS>ATOM
      1 SI          7.0942    9.1151   10.9236 Si      1  UNL1        0.0000
      2 N           7.1792    9.5294    4.9119 N.pl3   1  UNL1        0.0000
      3 C           7.0195    9.8556    9.1988 C.3     1  UNL1        0.0000
      4 C           8.0844    9.7783    8.2518 C.3     1  UNL1        0.0000
      5 H           8.9779    9.1800    8.3896 H       1  UNL1        0.0000
      6 C           6.1689   10.9161    8.7412 C.ar    1  UNL1        0.0000
      7 C           6.7241   11.4558    7.5190 C.ar    1  UNL1        0.0000
      8 C           6.1217   12.5682    6.9036 C.ar    1  UNL1        0.0000
      9 H           6.5452   12.9893    5.9992 H       1  UNL1        0.0000
     10 C           5.0111   13.1317    7.4815 C.ar    1  UNL1        0.0000
     11 H           4.5451   13.9938    7.0255 H       1  UNL1        0.0000
     12 C           8.2555   10.3128    4.7998 C.3     1  UNL1        0.0000
     13 C           7.2684    9.1159    2.5557 C.2     1  UNL1        0.0000
     14 H           6.8460    8.6194    1.6970 H       1  UNL1        0.0000
     15 C           5.0280   11.5241    9.2933 C.ar    1  UNL1        0.0000
     16 H           4.6144   11.1530   10.2192 H       1  UNL1        0.0000
     17 C           8.8796   10.5380    3.5732 C.2     1  UNL1        0.0000
     18 H           9.7470   11.1791    3.5275 H       1  UNL1        0.0000
     19 C           8.3831    9.9355    2.4355 C.2     1  UNL1        0.0000
     20 H           8.8517   10.0954    1.4759 H       1  UNL1        0.0000
     21 C           4.4694   12.6115    8.6680 C.ar    1  UNL1        0.0000
     22 H           3.5995   13.0889    9.0960 H       1  UNL1        0.0000
     23 C           6.7085    8.9461    3.8066 C.2     1  UNL1        0.0000
     24 H           5.8415    8.3102    3.9441 H       1  UNL1        0.0000
     25 C           8.8063   10.9517    6.0509 C.3     1  UNL1        0.0000
     26 H           8.9400   12.0224    5.8612 H       1  UNL1        0.0000
     27 H           9.8007   10.5310    6.2387 H       1  UNL1        0.0000
     28 C           6.3623   10.2913   12.2409 C.3     1  UNL1        0.0000
     29 H           6.7421   10.0446   13.2278 H       1  UNL1        0.0000
     30 H           5.2805   10.2198   12.2859 H       1  UNL1        0.0000
     31 H           6.6177   11.3267   12.0391 H       1  UNL1        0.0000
     32 C           7.9215   10.7366    7.2413 C.3     1  UNL1        0.0000
     33 C           8.9304    8.8433   11.3914 C.3     1  UNL1        0.0000
     34 H           9.4004    8.0800   10.7801 H       1  UNL1        0.0000
     35 H           9.0191    8.5252   12.4256 H       1  UNL1        0.0000
     36 H           9.5064    9.7567   11.2787 H       1  UNL1        0.0000
     37 C           6.1774    7.4371   11.0442 C.3     1  UNL1        0.0000
     38 H           6.3390    6.8276   10.1585 H       1  UNL1        0.0000
     39 H           5.1065    7.5773   11.1570 H       1  UNL1        0.0000
     40 H           6.5208    6.8681   11.9030 H       1  UNL1        0.0000
@<TRIPOS>BOND
     1    20    19    1
     2    14    13    1
     3    19    13    1
     4    19    17    2
     5    13    23    2
     6    18    17    1
     7    17    12    1
     8    23    24    1
     9    23     2    1
    10    12     2    1
    11    12    25    1
    12    26    25    1
    13     9     8    1
    14    25    27    1
    15    25    32    1
    16     8    10   ar
    17     8     7   ar
    18    11    10    1
    19    32     7    1
    20    32     4    1
    21    10    21   ar
    22     7     6   ar
    23     4     5    1
    24     4     3    1
    25    21    22    1
    26    21    15   ar
    27     6     3    1
    28     6    15   ar
    29     3     1    1
    30    15    16    1
    31    38    37    1
    32    34    33    1
    33     1    37    1
    34     1    33    1
    35     1    28    1
    36    37    39    1
    37    37    40    1
    38    36    33    1
    39    33    35    1
    40    31    28    1
    41    28    30    1
    42    28    29    1
