@<TRIPOS>MOLECULE
1,4,5,6,7,8
 46 46 0 0 0
SMALL
GASTEIGER

@<TRIPOS>ATOM
      1 N           6.4248   12.1751   15.7090 N.3     1  UNL1        0.0000
      2 N           3.9508   13.0971   14.3933 N.3     1  UNL1        0.0000
      3 SI          4.6435   13.2408   12.7965 Si      1  UNL1        0.0000
      4 C           6.5307   13.4411   12.8629 C.3     1  UNL1        0.0000
      5 C           7.5660   12.4580   12.7128 C.2     1  UNL1        0.0000
      6 C           8.8254   13.0973   12.8567 C.2     1  UNL1        0.0000
      7 C           8.5971   14.4723   13.1105 C.2     1  UNL1        0.0000
      8 C           7.1970   14.6874   13.1197 C.2     1  UNL1        0.0000
      9 C           4.0272   11.8235   15.0734 C.3     1  UNL1        0.0000
     10 H           3.4123   11.0992   14.5322 H       1  UNL1        0.0000
     11 H           3.6085   11.9376   16.0768 H       1  UNL1        0.0000
     12 C           5.4615   11.2444   15.1735 C.3     1  UNL1        0.0000
     13 H           5.4211   10.3390   15.8003 H       1  UNL1        0.0000
     14 H           5.7735   10.9450   14.1697 H       1  UNL1        0.0000
     15 C           3.9865   14.2358   15.2899 C.3     1  UNL1        0.0000
     16 H           3.7103   15.1302   14.7374 H       1  UNL1        0.0000
     17 H           4.9772   14.3862   15.7464 H       1  UNL1        0.0000
     18 H           3.2520   14.0958   16.0860 H       1  UNL1        0.0000
     19 C           6.4840   12.0969   17.1568 C.3     1  UNL1        0.0000
     20 H           7.1590   12.8565   17.5634 H       1  UNL1        0.0000
     21 H           6.8518   11.1058   17.4688 H       1  UNL1        0.0000
     22 H           5.4888   12.2470   17.5993 H       1  UNL1        0.0000
     23 C           3.8066   14.7101   11.9083 C.3     1  UNL1        0.0000
     24 H           3.7767   15.6224   12.4902 H       1  UNL1        0.0000
     25 H           2.7834   14.4520   11.6575 H       1  UNL1        0.0000
     26 H           4.3218   14.9322   10.9801 H       1  UNL1        0.0000
     27 C           4.0346   11.7174   11.8127 C.3     1  UNL1        0.0000
     28 H           4.2623   10.7642   12.2759 H       1  UNL1        0.0000
     29 H           4.4524   11.7131   10.8117 H       1  UNL1        0.0000
     30 H           2.9560   11.7726   11.7096 H       1  UNL1        0.0000
     31 C           7.4500   11.0341   12.2427 C.3     1  UNL1        0.0000
     32 H           6.4300   10.7857   11.9686 H       1  UNL1        0.0000
     33 H           7.7992   10.3319   13.0056 H       1  UNL1        0.0000
     34 H           8.0765   10.8961   11.3589 H       1  UNL1        0.0000
     35 C          10.1465   12.4279   12.6214 C.3     1  UNL1        0.0000
     36 H          10.9576   12.9720   13.1013 H       1  UNL1        0.0000
     37 H          10.3529   12.3795   11.5485 H       1  UNL1        0.0000
     38 H          10.1425   11.4125   13.0172 H       1  UNL1        0.0000
     39 C           9.6426   15.5367   13.2784 C.3     1  UNL1        0.0000
     40 H          10.6275   15.0946   13.4191 H       1  UNL1        0.0000
     41 H           9.4249   16.1649   14.1449 H       1  UNL1        0.0000
     42 H           9.6774   16.1768   12.3935 H       1  UNL1        0.0000
     43 C           6.5596   16.0426   13.2040 C.3     1  UNL1        0.0000
     44 H           5.6551   16.0224   13.8073 H       1  UNL1        0.0000
     45 H           6.3021   16.3947   12.2027 H       1  UNL1        0.0000
     46 H           7.2464   16.7600   13.6503 H       1  UNL1        0.0000
@<TRIPOS>BOND
     1    29    27    1
     2    26    23    1
     3    34    31    1
     4    37    35    1
     5    25    23    1
     6    30    27    1
     7    27    28    1
     8    27     3    1
     9    23    24    1
    10    23     3    1
    11    32    31    1
    12    45    43    1
    13    31     5    1
    14    31    33    1
    15    42    39    1
    16    35     6    1
    17    35    38    1
    18    35    36    1
    19     5     6    2
    20     5     4    1
    21     3     4    1
    22     3     2    1
    23     6     7    1
    24     4     8    1
    25     7     8    2
    26     7    39    1
    27     8    43    1
    28    43    46    1
    29    43    44    1
    30    39    40    1
    31    39    41    1
    32    14    12    1
    33     2     9    1
    34     2    15    1
    35    10     9    1
    36    16    15    1
    37     9    12    1
    38     9    11    1
    39    12     1    1
    40    12    13    1
    41    15    17    1
    42    15    18    1
    43     1    19    1
    44    19    21    1
    45    19    20    1
    46    19    22    1
