@<TRIPOS>MOLECULE
1,2,3,4,5,6
 36 36 0 0 0
SMALL
GASTEIGER

@<TRIPOS>ATOM
      1 N           7.9982    1.2204    2.7634 N.3     1  UNL1       -0.3080
      2 C           6.1851   -0.1398    4.6374 C.2     1  UNL1       -0.0434
      3 C           6.5124    0.5047    5.8676 C.2     1  UNL1       -0.0474
      4 C           5.3501    1.1993    6.3112 C.2     1  UNL1       -0.0584
      5 C           4.3137    0.9822    5.3553 C.3     1  UNL1        0.0231
      6 C           4.8269    0.1475    4.3262 C.2     1  UNL1       -0.0581
      7 C           7.6995    0.1790    6.7372 C.3     1  UNL1       -0.0395
      8 H           7.5560   -0.7986    7.2043 H       1  UNL1        0.0278
      9 H           7.8108    0.9095    7.5351 H       1  UNL1        0.0278
     10 H           8.6346    0.1389    6.1798 H       1  UNL1        0.0278
     11 C           5.1337    1.8198    7.6647 C.3     1  UNL1       -0.0424
     12 H           4.5216    2.7164    7.5876 H       1  UNL1        0.0275
     13 H           6.0762    2.0930    8.1357 H       1  UNL1        0.0275
     14 H           4.6222    1.1141    8.3245 H       1  UNL1        0.0275
     15 C           2.8870    1.4365    5.5103 C.3     1  UNL1       -0.0510
     16 H           2.2942    1.1309    4.6508 H       1  UNL1        0.0242
     17 H           2.8298    2.5236    5.5955 H       1  UNL1        0.0242
     18 H           2.4412    1.0018    6.4083 H       1  UNL1        0.0242
     19 C           4.0113   -0.5049    3.2417 C.3     1  UNL1       -0.0424
     20 H           3.7778    0.1820    2.4297 H       1  UNL1        0.0275
     21 H           3.0720   -0.8723    3.6556 H       1  UNL1        0.0275
     22 H           4.5449   -1.3568    2.8255 H       1  UNL1        0.0275
     23 C           7.1191   -0.9225    3.7565 C.3     1  UNL1       -0.0147
     24 H           6.6498   -1.8584    3.4390 H       1  UNL1        0.0326
     25 H           8.0218   -1.1907    4.3075 H       1  UNL1        0.0326
     26 C           7.4755   -0.1321    2.4824 C.3     1  UNL1        0.0023
     27 H           8.2120   -0.7010    1.8904 H       1  UNL1        0.0429
     28 H           6.5670   -0.0116    1.8857 H       1  UNL1        0.0429
     29 C           9.3523    1.1054    3.3126 C.3     1  UNL1       -0.0130
     30 H           9.3325    0.5677    4.2562 H       1  UNL1        0.0391
     31 H           9.7647    2.0968    3.4887 H       1  UNL1        0.0391
     32 H          10.0147    0.5679    2.6183 H       1  UNL1        0.0391
     33 C           8.1028    1.9595    1.4971 C.3     1  UNL1       -0.0130
     34 H           8.5302    2.9450    1.6868 H       1  UNL1        0.0391
     35 H           7.1160    2.0938    1.0568 H       1  UNL1        0.0391
     36 H           8.7498    1.4265    0.7847 H       1  UNL1        0.0391
@<TRIPOS>BOND
     1    36    33    1
     2    35    33    1
     3    33    34    1
     4    33     1    1
     5    28    26    1
     6    27    26    1
     7    20    19    1
     8    26     1    1
     9    26    23    1
    10    32    29    1
    11     1    29    1
    12    22    19    1
    13    19    21    1
    14    19     6    1
    15    29    31    1
    16    29    30    1
    17    24    23    1
    18    23    25    1
    19    23     2    1
    20     6     2    2
    21     6     5    1
    22     2     3    1
    23    16    15    1
    24     5    15    1
    25     5     4    1
    26    15    17    1
    27    15    18    1
    28     3     4    2
    29     3     7    1
    30    10     7    1
    31     4    11    1
    32     7     8    1
    33     7     9    1
    34    12    11    1
    35    11    13    1
    36    11    14    1
