@<TRIPOS>MOLECULE
3,4,5,7,9,11
 30 30 0 0 0
SMALL
GASTEIGER

@<TRIPOS>ATOM
      1 SI          4.0315    1.9987    3.1758 Si      1  UNL1        0.0000
      2 O           5.9223    1.1138    1.3774 O.3     1  UNL1        0.0000
      3 N           5.1461    0.9925    4.0707 N.3     1  UNL1        0.0000
      4 C           3.1218    2.2623    4.8457 C.3     1  UNL1        0.0000
      5 C           3.8001    2.8987    5.9239 C.3     1  UNL1        0.0000
      6 H           4.4404    3.7696    5.8336 H       1  UNL1        0.0000
      7 C           3.3882    2.3089    7.1400 C.2     1  UNL1        0.0000
      8 H           3.6445    2.6546    8.1353 H       1  UNL1        0.0000
      9 C           2.4704    1.2815    6.8314 C.2     1  UNL1        0.0000
     10 H           1.9005    0.7012    7.5490 H       1  UNL1        0.0000
     11 C           2.3178    1.2453    5.4268 C.3     1  UNL1        0.0000
     12 H           1.6195    0.6132    4.8894 H       1  UNL1        0.0000
     13 C           4.6648    3.6975    2.5636 C.3     1  UNL1        0.0000
     14 H           5.6163    3.9552    3.0193 H       1  UNL1        0.0000
     15 H           3.9535    4.4763    2.8181 H       1  UNL1        0.0000
     16 H           4.7913    3.7077    1.4887 H       1  UNL1        0.0000
     17 C           2.8860    1.0740    1.9599 C.3     1  UNL1        0.0000
     18 H           2.6094    0.1028    2.3629 H       1  UNL1        0.0000
     19 H           3.3802    0.9115    1.0104 H       1  UNL1        0.0000
     20 H           1.9768    1.6362    1.7765 H       1  UNL1        0.0000
     21 C           6.1089    0.0914    3.4985 C.3     1  UNL1        0.0000
     22 H           5.5970   -0.7978    3.0908 H       1  UNL1        0.0000
     23 H           6.8301   -0.2331    4.2652 H       1  UNL1        0.0000
     24 C           6.8695    0.7656    2.3572 C.3     1  UNL1        0.0000
     25 H           7.3754    1.6670    2.7353 H       1  UNL1        0.0000
     26 H           7.6218    0.0808    1.9394 H       1  UNL1        0.0000
     27 C           6.4782    1.7929    0.2810 C.3     1  UNL1        0.0000
     28 H           5.6568    2.0330   -0.3911 H       1  UNL1        0.0000
     29 H           7.2034    1.1597   -0.2443 H       1  UNL1        0.0000
     30 H           6.9801    2.7161    0.5928 H       1  UNL1        0.0000
@<TRIPOS>BOND
     1    28    27    1
     2    29    27    1
     3    27    30    1
     4    27     2    1
     5    19    17    1
     6     2    24    1
     7    16    13    1
     8    20    17    1
     9    26    24    1
    10    17    18    1
    11    17     1    1
    12    24    25    1
    13    24    21    1
    14    13    15    1
    15    13    14    1
    16    13     1    1
    17    22    21    1
    18     1     3    1
    19     1     4    1
    20    21     3    1
    21    21    23    1
    22     4    11    1
    23     4     5    1
    24    12    11    1
    25    11     9    1
    26     6     5    1
    27     5     7    1
    28     9     7    2
    29     9    10    1
    30     7     8    1
