@<TRIPOS>MOLECULE
2,3,4,5,6,7
 32 32 0 0 0
SMALL
GASTEIGER

@<TRIPOS>ATOM
      1 SI         -1.8391    9.9291    4.9219 Si      1  UNL1        0.0000
      2 N          -1.9827    9.5729    6.6024 N.3     1  UNL1        0.0000
      3 C          -0.4994   11.2503    5.2335 C.3     1  UNL1        0.0000
      4 C          -0.7985   12.5617    5.6899 C.2     1  UNL1        0.0000
      5 C           0.2634   13.0238    6.4929 C.2     1  UNL1        0.0000
      6 C           1.2394   11.9988    6.5498 C.2     1  UNL1        0.0000
      7 C           0.7658   10.9116    5.7921 C.2     1  UNL1        0.0000
      8 C          -3.3693   10.7496    4.0999 C.3     1  UNL1        0.0000
      9 C          -1.2064    8.5295    3.7725 C.3     1  UNL1        0.0000
     10 C          -2.7427    8.5183    7.2453 C.3     1  UNL1        0.0000
     11 C          -4.1159    8.3392    6.5821 C.3     1  UNL1        0.0000
     12 C          -2.9619    8.8910    8.7292 C.3     1  UNL1        0.0000
     13 C          -1.9508    7.1997    7.1734 C.3     1  UNL1        0.0000
     14 H          -1.6639   13.1438    5.3947 H       1  UNL1        0.0000
     15 H           0.3806   14.0374    6.8634 H       1  UNL1        0.0000
     16 H           2.2317   12.0815    6.9780 H       1  UNL1        0.0000
     17 H           1.3136    9.9972    5.5899 H       1  UNL1        0.0000
     18 H          -3.0840   11.3235    3.2245 H       1  UNL1        0.0000
     19 H          -3.8638   11.4235    4.7942 H       1  UNL1        0.0000
     20 H          -4.0970   10.0106    3.7826 H       1  UNL1        0.0000
     21 H          -0.9319    8.9221    2.7998 H       1  UNL1        0.0000
     22 H          -1.9736    7.7787    3.6158 H       1  UNL1        0.0000
     23 H          -0.3361    8.0332    4.1894 H       1  UNL1        0.0000
     24 H          -4.6433    9.2905    6.5801 H       1  UNL1        0.0000
     25 H          -4.7083    7.6032    7.1204 H       1  UNL1        0.0000
     26 H          -3.9923    8.0082    5.5549 H       1  UNL1        0.0000
     27 H          -3.5494    9.8097    8.7981 H       1  UNL1        0.0000
     28 H          -1.9971    9.0185    9.2345 H       1  UNL1        0.0000
     29 H          -3.5096    8.0956    9.2332 H       1  UNL1        0.0000
     30 H          -0.9620    7.3444    7.6081 H       1  UNL1        0.0000
     31 H          -1.8323    6.8996    6.1358 H       1  UNL1        0.0000
     32 H          -2.4647    6.4087    7.7146 H       1  UNL1        0.0000
@<TRIPOS>BOND
     1    21     9    1
     2    18     8    1
     3    22     9    1
     4     9    23    1
     5     9     1    1
     6    20     8    1
     7     8    19    1
     8     8     1    1
     9     1     3    1
    10     1     2    1
    11     3     4    1
    12     3     7    1
    13    14     4    1
    14    26    11    1
    15    17     7    1
    16     4     5    2
    17     7     6    2
    18    31    13    1
    19     5     6    1
    20     5    15    1
    21     6    16    1
    22    24    11    1
    23    11    25    1
    24    11    10    1
    25     2    10    1
    26    13    10    1
    27    13    30    1
    28    13    32    1
    29    10    12    1
    30    12    27    1
    31    12    29    1
    32    12    28    1
