@<TRIPOS>MOLECULE
2,4,5,6,7
 44 44 0 0 0
SMALL
GASTEIGER

@<TRIPOS>ATOM
      1 SI         -1.5461    0.9202   15.8137 Si      1  UNL1        0.0000
      2 N          -1.5777    2.3246   14.8334 N.3     1  UNL1        0.0000
      3 C          -2.6916    1.6490   17.1520 C.3     1  UNL1        0.0000
      4 C          -4.0604    1.9287   16.8366 C.2     1  UNL1        0.0000
      5 C          -4.4879    3.0413   17.5969 C.2     1  UNL1        0.0000
      6 C          -3.3808    3.4758   18.3883 C.2     1  UNL1        0.0000
      7 C          -2.2826    2.6280   18.1077 C.2     1  UNL1        0.0000
      8 C          -4.9120    1.0810   15.9266 C.3     1  UNL1        0.0000
      9 C          -5.8838    3.5808   17.7717 C.3     1  UNL1        0.0000
     10 C          -3.4971    4.4867   19.4980 C.3     1  UNL1        0.0000
     11 C          -0.9816    2.6251   18.8633 C.3     1  UNL1        0.0000
     12 C           0.2206    0.4326   16.4179 C.3     1  UNL1        0.0000
     13 C          -2.2095   -0.7606   15.1320 C.3     1  UNL1        0.0000
     14 C          -1.4028    2.4766   13.4062 C.3     1  UNL1        0.0000
     15 C          -0.4313    1.4425   12.8193 C.3     1  UNL1        0.0000
     16 C          -2.7775    2.3431   12.7151 C.3     1  UNL1        0.0000
     17 C          -0.8576    3.8933   13.1253 C.3     1  UNL1        0.0000
     18 H          -4.7775    0.0272   16.1707 H       1  UNL1        0.0000
     19 H          -4.6427    1.2171   14.8740 H       1  UNL1        0.0000
     20 H          -5.9707    1.3129   16.0467 H       1  UNL1        0.0000
     21 H          -6.2229    3.4195   18.7984 H       1  UNL1        0.0000
     22 H          -6.5916    3.0888   17.1071 H       1  UNL1        0.0000
     23 H          -5.9233    4.6553   17.5765 H       1  UNL1        0.0000
     24 H          -4.0468    4.0592   20.3418 H       1  UNL1        0.0000
     25 H          -4.0377    5.3774   19.1717 H       1  UNL1        0.0000
     26 H          -2.5186    4.7917   19.8642 H       1  UNL1        0.0000
     27 H          -1.0564    1.9697   19.7359 H       1  UNL1        0.0000
     28 H          -0.7296    3.6225   19.2248 H       1  UNL1        0.0000
     29 H          -0.1673    2.2617   18.2427 H       1  UNL1        0.0000
     30 H           0.6888   -0.2306   15.6977 H       1  UNL1        0.0000
     31 H           0.1949   -0.0903   17.3677 H       1  UNL1        0.0000
     32 H           0.8690    1.2972   16.5254 H       1  UNL1        0.0000
     33 H          -1.4157   -1.2917   14.6169 H       1  UNL1        0.0000
     34 H          -3.0262   -0.6370   14.4292 H       1  UNL1        0.0000
     35 H          -2.5580   -1.4054   15.9321 H       1  UNL1        0.0000
     36 H           0.5135    1.4841   13.3546 H       1  UNL1        0.0000
     37 H          -0.2514    1.6417   11.7652 H       1  UNL1        0.0000
     38 H          -0.8412    0.4430   12.9249 H       1  UNL1        0.0000
     39 H          -3.1681    1.3384   12.8694 H       1  UNL1        0.0000
     40 H          -2.6989    2.5227   11.6442 H       1  UNL1        0.0000
     41 H          -3.4602    3.0746   13.1617 H       1  UNL1        0.0000
     42 H           0.1740    3.9685   13.4654 H       1  UNL1        0.0000
     43 H          -1.4685    4.6226   13.6725 H       1  UNL1        0.0000
     44 H          -0.8870    4.1113   12.0587 H       1  UNL1        0.0000
@<TRIPOS>BOND
     1    40    16    1
     2    37    15    1
     3    44    17    1
     4    16    39    1
     5    16    41    1
     6    16    14    1
     7    15    38    1
     8    15    36    1
     9    15    14    1
    10    17    14    1
    11    17    42    1
    12    17    43    1
    13    14     2    1
    14    34    13    1
    15    33    13    1
    16     2     1    1
    17    19     8    1
    18    13     1    1
    19    13    35    1
    20    30    12    1
    21     1    12    1
    22     1     3    1
    23     8    20    1
    24     8    18    1
    25     8     4    1
    26    12    32    1
    27    12    31    1
    28     4     3    1
    29     4     5    2
    30    22     9    1
    31     3     7    1
    32    23     9    1
    33     5     9    1
    34     5     6    1
    35     9    21    1
    36     7     6    2
    37     7    11    1
    38    29    11    1
    39     6    10    1
    40    11    28    1
    41    11    27    1
    42    25    10    1
    43    10    26    1
    44    10    24    1
