@<TRIPOS>MOLECULE
2,4,5,6,7
 32 32 0 0 0
SMALL
GASTEIGER

@<TRIPOS>ATOM
      1 SI          1.4134    3.7559    4.5808 Si      1  UNL1        0.0000
      2 N           0.5438    2.9571    3.3169 N.3     1  UNL1        0.0000
      3 C           2.1129    2.1331    5.2416 C.3     1  UNL1        0.0000
      4 C           1.2373    1.1592    5.7887 C.3     1  UNL1        0.0000
      5 C           1.7487   -0.1199    5.5110 C.2     1  UNL1        0.0000
      6 C           2.9391    0.0444    4.7743 C.2     1  UNL1        0.0000
      7 C           3.1504    1.4213    4.5937 C.3     1  UNL1        0.0000
      8 C           0.4126    4.6814    5.9376 C.3     1  UNL1        0.0000
      9 C           2.7969    4.9653    4.0155 C.3     1  UNL1        0.0000
     10 C          -0.5496    3.5068    2.5402 C.3     1  UNL1        0.0000
     11 C          -1.8682    3.3313    3.3171 C.3     1  UNL1        0.0000
     12 C          -0.6755    2.7647    1.1981 C.3     1  UNL1        0.0000
     13 C          -0.3366    5.0000    2.2464 C.3     1  UNL1        0.0000
     14 H           0.4014    1.3809    6.4453 H       1  UNL1        0.0000
     15 H           1.3789   -1.0597    5.9074 H       1  UNL1        0.0000
     16 H           3.6290   -0.7498    4.5136 H       1  UNL1        0.0000
     17 H           4.0253    1.8730    4.1392 H       1  UNL1        0.0000
     18 H          -0.0354    5.5894    5.5474 H       1  UNL1        0.0000
     19 H           1.0588    4.9686    6.7605 H       1  UNL1        0.0000
     20 H          -0.3849    4.0676    6.3454 H       1  UNL1        0.0000
     21 H           3.4669    5.1930    4.8383 H       1  UNL1        0.0000
     22 H           2.3816    5.9047    3.6656 H       1  UNL1        0.0000
     23 H           3.3924    4.5452    3.2103 H       1  UNL1        0.0000
     24 H          -2.0445    2.2699    3.4825 H       1  UNL1        0.0000
     25 H          -2.7046    3.7509    2.7620 H       1  UNL1        0.0000
     26 H          -1.7988    3.8330    4.2790 H       1  UNL1        0.0000
     27 H           0.1613    3.0100    0.5476 H       1  UNL1        0.0000
     28 H          -1.5991    3.0500    0.6972 H       1  UNL1        0.0000
     29 H          -0.6746    1.6908    1.3856 H       1  UNL1        0.0000
     30 H           0.6286    5.1494    1.7688 H       1  UNL1        0.0000
     31 H          -0.3602    5.5759    3.1666 H       1  UNL1        0.0000
     32 H          -1.1171    5.3684    1.5843 H       1  UNL1        0.0000
@<TRIPOS>BOND
     1    27    12    1
     2    28    12    1
     3    12    29    1
     4    12    10    1
     5    32    13    1
     6    30    13    1
     7    13    10    1
     8    13    31    1
     9    10     2    1
    10    10    11    1
    11    25    11    1
    12    23     9    1
    13     2     1    1
    14    11    24    1
    15    11    26    1
    16    22     9    1
    17     9     1    1
    18     9    21    1
    19    17     7    1
    20    16     6    1
    21     1     3    1
    22     1     8    1
    23     7     6    1
    24     7     3    1
    25     6     5    2
    26     3     4    1
    27     5     4    1
    28     5    15    1
    29    18     8    1
    30     4    14    1
    31     8    20    1
    32     8    19    1
