@<TRIPOS>MOLECULE
5,6,7,70
 82 85 0 0 0
SMALL
GASTEIGER

@<TRIPOS>ATOM
      1 P           6.4037   12.2191    6.6791 P.3     1  UNL1        0.0000
      2 SI          3.9062   16.9720    6.9184 Si      1  UNL1        0.0000
      3 B           7.2933   12.1336    3.3371 B       1  UNL1        0.0000
      4 C           4.7802   15.5533    6.1271 C.1     1  UNL1        0.0000
      5 C           5.5198   14.6509    5.7452 C.1     1  UNL1        0.0000
      6 C           6.2208   13.4898    5.3714 C.3     1  UNL1        0.0000
      7 C           6.6386   13.3014    3.9673 C.3     1  UNL1        0.0000
      8 H           6.6899   14.2517    3.4192 H       1  UNL1        0.0000
      9 C           2.6728   16.2449    8.1817 C.3     1  UNL1        0.0000
     10 H           1.8670   15.7000    7.6990 H       1  UNL1        0.0000
     11 H           2.2212   17.0290    8.7822 H       1  UNL1        0.0000
     12 H           3.1736   15.5591    8.8578 H       1  UNL1        0.0000
     13 C           2.9646   17.9849    5.6004 C.3     1  UNL1        0.0000
     14 H           3.5947   18.2238    4.7493 H       1  UNL1        0.0000
     15 H           2.6155   18.9244    6.0190 H       1  UNL1        0.0000
     16 H           2.0912   17.4586    5.2258 H       1  UNL1        0.0000
     17 C           5.1675   18.0934    7.8081 C.3     1  UNL1        0.0000
     18 H           5.7198   17.5332    8.5554 H       1  UNL1        0.0000
     19 H           4.6767   18.9220    8.3104 H       1  UNL1        0.0000
     20 H           5.8881   18.5118    7.1119 H       1  UNL1        0.0000
     21 C           8.2047   11.8370    6.9532 C.ar    1  UNL1        0.0000
     22 C           9.3298   12.3307    6.2768 C.ar    1  UNL1        0.0000
     23 C          10.5538   11.6848    6.4278 C.ar    1  UNL1        0.0000
     24 H          11.4020   12.0734    5.8822 H       1  UNL1        0.0000
     25 C          10.7193   10.5711    7.2277 C.ar    1  UNL1        0.0000
     26 C           9.6152   10.1261    7.9417 C.ar    1  UNL1        0.0000
     27 H           9.7214    9.2767    8.6018 H       1  UNL1        0.0000
     28 C           8.3790   10.7315    7.8133 C.ar    1  UNL1        0.0000
     29 C           9.3682   13.5511    5.4039 C.3     1  UNL1        0.0000
     30 H           9.5296   13.2581    4.3672 H       1  UNL1        0.0000
     31 H          10.2084   14.1765    5.7042 H       1  UNL1        0.0000
     32 H           8.4640   14.1394    5.4655 H       1  UNL1        0.0000
     33 C          12.0299    9.8564    7.3163 C.3     1  UNL1        0.0000
     34 H          12.8429   10.4877    6.9668 H       1  UNL1        0.0000
     35 H          11.9994    8.9628    6.6924 H       1  UNL1        0.0000
     36 H          12.2332    9.5444    8.3387 H       1  UNL1        0.0000
     37 C           7.2455   10.1967    8.6334 C.3     1  UNL1        0.0000
     38 H           7.5539    9.3053    9.1746 H       1  UNL1        0.0000
     39 H           6.3933    9.9397    8.0067 H       1  UNL1        0.0000
     40 H           6.9176   10.9432    9.3560 H       1  UNL1        0.0000
     41 C           5.8862   13.1486    8.2035 C.ar    1  UNL1        0.0000
     42 C           6.5480   14.2808    8.7080 C.ar    1  UNL1        0.0000
     43 C           6.0724   14.8952    9.8547 C.ar    1  UNL1        0.0000
     44 H           6.5934   15.7616   10.2381 H       1  UNL1        0.0000
     45 C           4.9548   14.4344   10.5352 C.ar    1  UNL1        0.0000
     46 C           4.3267   13.3043   10.0467 C.ar    1  UNL1        0.0000
     47 H           3.4658   12.9058   10.5659 H       1  UNL1        0.0000
     48 C           4.7778   12.6511    8.9049 C.ar    1  UNL1        0.0000
     49 C           7.7649   14.8609    8.0638 C.3     1  UNL1        0.0000
     50 H           8.2019   15.6256    8.7016 H       1  UNL1        0.0000
     51 H           7.5015   15.3234    7.1148 H       1  UNL1        0.0000
     52 H           8.5088   14.0889    7.8910 H       1  UNL1        0.0000
     53 C           4.4618   15.1453   11.7573 C.3     1  UNL1        0.0000
     54 H           4.1718   16.1654   11.5069 H       1  UNL1        0.0000
     55 H           5.2487   15.1989   12.5083 H       1  UNL1        0.0000
     56 H           3.6033   14.6350   12.1866 H       1  UNL1        0.0000
     57 C           4.0430   11.3958    8.5327 C.3     1  UNL1        0.0000
     58 H           4.2648   10.6151    9.2602 H       1  UNL1        0.0000
     59 H           4.3283   11.0382    7.5480 H       1  UNL1        0.0000
     60 H           2.9673   11.5605    8.5511 H       1  UNL1        0.0000
     61 C           7.2453   11.9925    1.7571 C.ar    1  UNL1        0.0000
     62 F           9.5493   12.0521    1.2872 F       1  UNL1        0.0000
     63 C           8.2997   11.8861    0.8506 C.ar    1  UNL1        0.0000
     64 F           9.1335   11.5653   -1.3411 F       1  UNL1        0.0000
     65 C           8.0974   11.6431   -0.5039 C.ar    1  UNL1        0.0000
     66 F           6.6022   11.2423   -2.2990 F       1  UNL1        0.0000
     67 C           6.8030   11.4833   -1.0017 C.ar    1  UNL1        0.0000
     68 F           4.4676   11.4324   -0.5596 F       1  UNL1        0.0000
     69 C           5.7242   11.5780   -0.1272 C.ar    1  UNL1        0.0000
     70 F           4.8590   11.8982    2.0656 F       1  UNL1        0.0000
     71 C           5.9749   11.8370    1.2090 C.ar    1  UNL1        0.0000
     72 C           7.5128   10.7694    4.0877 C.ar    1  UNL1        0.0000
     73 F           5.1649   10.8873    4.3973 F       1  UNL1        0.0000
     74 C           6.3732   10.2544    4.7103 C.ar    1  UNL1        0.0000
     75 F           5.1903    8.6135    5.9327 F       1  UNL1        0.0000
     76 C           6.3414    9.0539    5.4019 C.ar    1  UNL1        0.0000
     77 F           7.5522    7.2233    6.2827 F       1  UNL1        0.0000
     78 C           7.5265    8.3529    5.5673 C.ar    1  UNL1        0.0000
     79 C           8.6945    8.8285    4.9599 C.ar    1  UNL1        0.0000
     80 F           9.8319    8.1366    5.0998 F       1  UNL1        0.0000
     81 F           9.7988   10.4161    3.6396 F       1  UNL1        0.0000
     82 C           8.6691   10.0040    4.2232 C.ar    1  UNL1        0.0000
@<TRIPOS>BOND
     1    66    67    1
     2    64    65    1
     3    67    65   ar
     4    67    69   ar
     5    68    69    1
     6    65    63   ar
     7    69    71   ar
     8    63    62    1
     9    63    61   ar
    10    71    61   ar
    11    71    70    1
    12    61     3    1
    13     3     7    1
    14     3    72    1
    15     8     7    1
    16    81    82    1
    17     7     6    1
    18    72    82   ar
    19    72    74   ar
    20    82    79   ar
    21    30    29    1
    22    73    74    1
    23    74    76   ar
    24    14    13    1
    25    79    80    1
    26    79    78   ar
    27    16    13    1
    28     6     5    1
    29     6     1    1
    30    76    78   ar
    31    76    75    1
    32    29    32    1
    33    29    31    1
    34    29    22    1
    35    78    77    1
    36    13    15    1
    37    13     2    1
    38     5     4    3
    39    24    23    1
    40     4     2    1
    41    22    23   ar
    42    22    21   ar
    43    23    25   ar
    44     1    21    1
    45     1    41    1
    46    35    33    1
    47     2    17    1
    48     2     9    1
    49    21    28   ar
    50    34    33    1
    51    20    17    1
    52    51    49    1
    53    25    33    1
    54    25    26   ar
    55    33    36    1
    56    59    57    1
    57    10     9    1
    58    17    19    1
    59    17    18    1
    60    28    26   ar
    61    28    37    1
    62    52    49    1
    63    26    27    1
    64    39    37    1
    65    49    50    1
    66    49    42    1
    67     9    11    1
    68     9    12    1
    69    41    42   ar
    70    41    48   ar
    71    57    60    1
    72    57    48    1
    73    57    58    1
    74    37    38    1
    75    37    40    1
    76    42    43   ar
    77    48    46   ar
    78    43    44    1
    79    43    45   ar
    80    46    45   ar
    81    46    47    1
    82    45    53    1
    83    54    53    1
    84    53    56    1
    85    53    55    1
