@<TRIPOS>MOLECULE
1,2,3,29
 44 46 0 0 0
SMALL
GASTEIGER

@<TRIPOS>ATOM
      1 C           3.1773    6.2409    1.9492 C.3     1  UNL1        0.0000
      2 C           2.7525    5.7792    0.6418 C.3     1  UNL1        0.0000
      3 C           1.4428    5.7390    0.2619 C.3     1  UNL1        0.0000
      4 C           1.0079    5.1227   -1.0402 C.3     1  UNL1        0.0000
      5 B          -0.6054    5.2368   -1.3461 B       1  UNL1        0.0000
      6 C          -0.9571    6.8134   -1.1381 C.ar    1  UNL1        0.0000
      7 C          -0.4356    7.7786   -1.9981 C.ar    1  UNL1        0.0000
      8 C          -0.6373    9.1420   -1.8288 C.ar    1  UNL1        0.0000
      9 C          -1.3676    9.6010   -0.7383 C.ar    1  UNL1        0.0000
     10 C          -1.8618    8.6763    0.1701 C.ar    1  UNL1        0.0000
     11 C          -1.6429    7.3204   -0.0436 C.ar    1  UNL1        0.0000
     12 C          -1.5344    4.2781   -0.3891 C.ar    1  UNL1        0.0000
     13 C          -1.1094    3.5027    0.6711 C.ar    1  UNL1        0.0000
     14 C          -1.9225    2.6536    1.4092 C.ar    1  UNL1        0.0000
     15 C          -3.2641    2.5338    1.0877 C.ar    1  UNL1        0.0000
     16 C          -3.7529    3.2950    0.0278 C.ar    1  UNL1        0.0000
     17 C          -2.8989    4.1382   -0.6731 C.ar    1  UNL1        0.0000
     18 C          -0.9245    4.6763   -2.8551 C.ar    1  UNL1        0.0000
     19 C          -1.6144    5.3471   -3.8608 C.ar    1  UNL1        0.0000
     20 C          -1.8396    4.8015   -5.1223 C.ar    1  UNL1        0.0000
     21 C          -1.3918    3.5211   -5.4177 C.ar    1  UNL1        0.0000
     22 C          -0.7446    2.7980   -4.4246 C.ar    1  UNL1        0.0000
     23 C          -0.5361    3.3804   -3.1819 C.ar    1  UNL1        0.0000
     24 F           0.3219    7.3969   -3.0375 F       1  UNL1        0.0000
     25 F          -0.1124   10.0176   -2.6925 F       1  UNL1        0.0000
     26 F          -1.5614   10.9098   -0.5488 F       1  UNL1        0.0000
     27 F          -2.5201    9.0878    1.2640 F       1  UNL1        0.0000
     28 F          -2.0887    6.4775    0.9210 F       1  UNL1        0.0000
     29 F           0.2254    3.5446    1.1248 F       1  UNL1        0.0000
     30 F          -1.3908    1.9841    2.4438 F       1  UNL1        0.0000
     31 F          -4.0632    1.7227    1.7809 F       1  UNL1        0.0000
     32 F          -5.0406    3.2110   -0.3045 F       1  UNL1        0.0000
     33 F          -3.4410    4.8542   -1.6607 F       1  UNL1        0.0000
     34 F          -2.1333    6.5623   -3.6432 F       1  UNL1        0.0000
     35 F          -2.4983    5.5047   -6.0492 F       1  UNL1        0.0000
     36 F          -1.5984    2.9852   -6.6244 F       1  UNL1        0.0000
     37 F          -0.3324    1.5438   -4.6598 F       1  UNL1        0.0000
     38 F           0.0533    2.6055   -2.2447 F       1  UNL1        0.0000
     39 H           2.6721    7.1562    2.2722 H       1  UNL1        0.0000
     40 H           4.2588    6.3236    2.0722 H       1  UNL1        0.0000
     41 H           3.4907    5.3616   -0.0463 H       1  UNL1        0.0000
     42 H           0.7026    6.3032    0.8439 H       1  UNL1        0.0000
     43 H           1.3583    4.0863   -1.0714 H       1  UNL1        0.0000
     44 H           1.5361    5.6295   -1.8532 H       1  UNL1        0.0000
@<TRIPOS>BOND
     1    36    21    1
     2    35    20    1
     3    21    20   ar
     4    21    22   ar
     5    20    19   ar
     6    37    22    1
     7    22    23   ar
     8    19    34    1
     9    19    18   ar
    10    23    18   ar
    11    23    38    1
    12    24     7    1
    13    18     5    1
    14    25     8    1
    15     7     8   ar
    16     7     6   ar
    17    44     4    1
    18     8     9   ar
    19    33    17    1
    20     5     6    1
    21     5     4    1
    22     5    12    1
    23     6    11   ar
    24    43     4    1
    25     4     3    1
    26     9    26    1
    27     9    10   ar
    28    17    12   ar
    29    17    16   ar
    30    12    13   ar
    31    32    16    1
    32    41     2    1
    33    11    10   ar
    34    11    28    1
    35    16    15   ar
    36    10    27    1
    37     3     2    1
    38     3    42    1
    39     2     1    1
    40    13    29    1
    41    13    14   ar
    42    15    14   ar
    43    15    31    1
    44    14    30    1
    45     1    40    1
    46     1    39    1
