@<TRIPOS>MOLECULE
3,4,5,17
 54 55 0 0 0
SMALL
GASTEIGER

@<TRIPOS>ATOM
      1 C           6.5806    3.4686   15.2962 C.3     1  UNL1        0.0000
      2 H           7.6201    3.8025   15.3026 H       1  UNL1        0.0000
      3 C           6.1542    2.9638   13.9964 C.3     1  UNL1        0.0000
      4 C           7.1843    2.6564   13.1189 C.3     1  UNL1        0.0000
      5 C           8.0697    1.9151   12.6132 C.3     1  UNL1        0.0000
      6 B           5.7897    3.6736   16.5126 B       1  UNL1        0.0000
      7 C           4.4010    3.0211   16.8024 C.ar    1  UNL1        0.0000
      8 C           3.4290    3.5905   17.6488 C.ar    1  UNL1        0.0000
      9 F           3.6295    4.8315   18.1190 F       1  UNL1        0.0000
     10 C           2.2558    2.9506   18.0041 C.ar    1  UNL1        0.0000
     11 F           1.3634    3.5591   18.7929 F       1  UNL1        0.0000
     12 C           1.9803    1.6605   17.5340 C.ar    1  UNL1        0.0000
     13 F           0.8484    1.0322   17.8738 F       1  UNL1        0.0000
     14 C           2.9125    1.0558   16.7016 C.ar    1  UNL1        0.0000
     15 F           2.7277   -0.1835   16.2123 F       1  UNL1        0.0000
     16 C           4.0601    1.7445   16.3641 C.ar    1  UNL1        0.0000
     17 F           4.9573    1.0458   15.5237 F       1  UNL1        0.0000
     18 C           6.4460    4.4261   17.7422 C.ar    1  UNL1        0.0000
     19 C           7.1365    5.6305   17.6113 C.ar    1  UNL1        0.0000
     20 F           7.2508    6.1954   16.3969 F       1  UNL1        0.0000
     21 C           7.7092    6.2950   18.6868 C.ar    1  UNL1        0.0000
     22 F           8.3587    7.4542   18.5038 F       1  UNL1        0.0000
     23 C           7.6089    5.7557   19.9647 C.ar    1  UNL1        0.0000
     24 F           8.1585    6.3841   21.0118 F       1  UNL1        0.0000
     25 C           6.9403    4.5487   20.1385 C.ar    1  UNL1        0.0000
     26 F           6.8539    4.0006   21.3591 F       1  UNL1        0.0000
     27 C           6.3816    3.9161   19.0390 C.ar    1  UNL1        0.0000
     28 F           5.7793    2.7220   19.2423 F       1  UNL1        0.0000
     29 SI          4.5819    3.7028   13.2241 Si      1  UNL1        0.0000
     30 C           2.9068    2.8696   13.6696 C.3     1  UNL1        0.0000
     31 H           2.9600    1.8015   13.8549 H       1  UNL1        0.0000
     32 H           2.2031    3.0200   12.8565 H       1  UNL1        0.0000
     33 H           2.4781    3.3376   14.5499 H       1  UNL1        0.0000
     34 C           4.8541    3.6444   11.3247 C.3     1  UNL1        0.0000
     35 H           3.9295    3.8417   10.7924 H       1  UNL1        0.0000
     36 H           5.2415    2.6903   10.9787 H       1  UNL1        0.0000
     37 H           5.5666    4.4072   11.0265 H       1  UNL1        0.0000
     38 C           4.4485    5.5222   13.7766 C.3     1  UNL1        0.0000
     39 H           5.3473    6.0804   13.5347 H       1  UNL1        0.0000
     40 H           4.3085    5.5942   14.8502 H       1  UNL1        0.0000
     41 H           3.6099    6.0165   13.2965 H       1  UNL1        0.0000
     42 SI          9.4705    2.1500   11.3999 Si      1  UNL1        0.0000
     43 C           8.9291    1.4907    9.6868 C.3     1  UNL1        0.0000
     44 H           9.7141    1.6551    8.9552 H       1  UNL1        0.0000
     45 H           8.0414    2.0039    9.3286 H       1  UNL1        0.0000
     46 H           8.7162    0.4260    9.6976 H       1  UNL1        0.0000
     47 C          11.0143    1.1853   11.9878 C.3     1  UNL1        0.0000
     48 H          11.2836    1.4430   13.0079 H       1  UNL1        0.0000
     49 H          11.8652    1.4292   11.3591 H       1  UNL1        0.0000
     50 H          10.8814    0.1083   11.9374 H       1  UNL1        0.0000
     51 C           9.9076    4.0028   11.2583 C.3     1  UNL1        0.0000
     52 H          10.2190    4.4075   12.2163 H       1  UNL1        0.0000
     53 H           9.0530    4.5824   10.9234 H       1  UNL1        0.0000
     54 H          10.7161    4.1673   10.5525 H       1  UNL1        0.0000
@<TRIPOS>BOND
     1    44    43    1
     2    45    43    1
     3    43    46    1
     4    43    42    1
     5    54    51    1
     6    35    34    1
     7    53    51    1
     8    36    34    1
     9    37    34    1
    10    51    42    1
    11    51    52    1
    12    34    29    1
    13    49    47    1
    14    42    47    1
    15    42     5    1
    16    50    47    1
    17    47    48    1
    18     5     4    1
    19    32    30    1
    20     4     3    1
    21    29    30    1
    22    29    38    1
    23    29     3    1
    24    41    38    1
    25    39    38    1
    26    30    31    1
    27    30    33    1
    28    38    40    1
    29     3     1    1
    30     1     2    1
    31     1     6    1
    32    17    16    1
    33    15    14    1
    34    16    14   ar
    35    16     7   ar
    36    20    19    1
    37     6     7    1
    38     6    18    1
    39    14    12   ar
    40     7     8   ar
    41    12    13    1
    42    12    10   ar
    43    19    18   ar
    44    19    21   ar
    45     8    10   ar
    46     8     9    1
    47    18    27   ar
    48    10    11    1
    49    22    21    1
    50    21    23   ar
    51    27    28    1
    52    27    25   ar
    53    23    25   ar
    54    23    24    1
    55    25    26    1
