@<TRIPOS>MOLECULE
3,17,18,46
 54 55 0 0 0
SMALL
GASTEIGER

@<TRIPOS>ATOM
      1 C           3.4508   -5.3138   16.3364 C.3     1  UNL1        0.0000
      2 H           3.3978   -6.3731   16.0792 H       1  UNL1        0.0000
      3 C           4.5553   -5.0106   17.2551 C.3     1  UNL1        0.0000
      4 SI          5.8740   -3.7661   16.6806 Si      1  UNL1        0.0000
      5 C           7.5654   -4.5420   17.1508 C.3     1  UNL1        0.0000
      6 H           7.8220   -5.3419   16.4634 H       1  UNL1        0.0000
      7 H           7.5709   -4.9673   18.1506 H       1  UNL1        0.0000
      8 H           8.3589   -3.8035   17.1004 H       1  UNL1        0.0000
      9 C           5.7636   -3.6257   14.7824 C.3     1  UNL1        0.0000
     10 H           6.6809   -3.2128   14.3743 H       1  UNL1        0.0000
     11 H           4.9481   -2.9803   14.4755 H       1  UNL1        0.0000
     12 H           5.5977   -4.5927   14.3193 H       1  UNL1        0.0000
     13 C           5.8736   -1.9764   17.3718 C.3     1  UNL1        0.0000
     14 H           6.4882   -1.3661   16.7173 H       1  UNL1        0.0000
     15 H           6.3099   -1.9104   18.3633 H       1  UNL1        0.0000
     16 H           4.8895   -1.5202   17.3939 H       1  UNL1        0.0000
     17 C           5.0275   -6.1341   17.9071 C.3     1  UNL1        0.0000
     18 C           5.0189   -7.1098   18.7145 C.3     1  UNL1        0.0000
     19 SI          5.7294   -8.8162   18.3676 Si      1  UNL1        0.0000
     20 C           5.6972  -10.0030   19.8656 C.3     1  UNL1        0.0000
     21 H           4.6964  -10.1748   20.2497 H       1  UNL1        0.0000
     22 H           6.3163   -9.6563   20.6853 H       1  UNL1        0.0000
     23 H           6.0866  -10.9681   19.5558 H       1  UNL1        0.0000
     24 C           7.5394   -8.6209   17.7903 C.3     1  UNL1        0.0000
     25 H           7.9739   -9.5845   17.5438 H       1  UNL1        0.0000
     26 H           8.1631   -8.1675   18.5546 H       1  UNL1        0.0000
     27 H           7.5977   -7.9956   16.9054 H       1  UNL1        0.0000
     28 C           4.6780   -9.5991   16.9759 C.3     1  UNL1        0.0000
     29 H           5.1291  -10.5203   16.6203 H       1  UNL1        0.0000
     30 H           4.5895   -8.9297   16.1254 H       1  UNL1        0.0000
     31 H           3.6751   -9.8410   17.3160 H       1  UNL1        0.0000
     32 B           2.5650   -4.3904   15.6263 B       1  UNL1        0.0000
     33 C           1.5836   -4.9142   14.5078 C.ar    1  UNL1        0.0000
     34 C           0.2595   -4.4786   14.4285 C.ar    1  UNL1        0.0000
     35 F          -0.2068   -3.6313   15.3745 F       1  UNL1        0.0000
     36 C          -0.6300   -4.9040   13.4550 C.ar    1  UNL1        0.0000
     37 F          -1.8942   -4.4565   13.4421 F       1  UNL1        0.0000
     38 C          -0.2072   -5.8172   12.4949 C.ar    1  UNL1        0.0000
     39 F          -1.0500   -6.2443   11.5454 F       1  UNL1        0.0000
     40 C           1.0998   -6.2908   12.5434 C.ar    1  UNL1        0.0000
     41 F           1.5187   -7.1802   11.6306 F       1  UNL1        0.0000
     42 C           1.9601   -5.8405   13.5340 C.ar    1  UNL1        0.0000
     43 F           3.2163   -6.3225   13.5319 F       1  UNL1        0.0000
     44 C           2.4037   -2.8893   16.0381 C.ar    1  UNL1        0.0000
     45 C           2.3743   -2.5255   17.3786 C.ar    1  UNL1        0.0000
     46 F           2.4876   -3.5473   18.3402 F       1  UNL1        0.0000
     47 C           2.1877   -1.2445   17.8581 C.ar    1  UNL1        0.0000
     48 F           2.1852   -1.0246   19.1840 F       1  UNL1        0.0000
     49 C           2.0129   -0.2087   16.9474 C.ar    1  UNL1        0.0000
     50 F           1.8476    1.0515   17.3667 F       1  UNL1        0.0000
     51 C           2.0139   -0.5132   15.5816 C.ar    1  UNL1        0.0000
     52 F           1.8477    0.4751   14.6962 F       1  UNL1        0.0000
     53 C           2.1980   -1.8173   15.1546 C.ar    1  UNL1        0.0000
     54 F           2.2015   -2.0558   13.8351 F       1  UNL1        0.0000
@<TRIPOS>BOND
     1    39    38    1
     2    41    40    1
     3    38    40   ar
     4    38    36   ar
     5    40    42   ar
     6    37    36    1
     7    36    34   ar
     8    43    42    1
     9    42    33   ar
    10    54    53    1
    11    12     9    1
    12    10     9    1
    13    34    33   ar
    14    34    35    1
    15    11     9    1
    16    33    32    1
    17    52    51    1
    18     9     4    1
    19    53    51   ar
    20    53    44   ar
    21    51    49   ar
    22    32    44    1
    23    32     1    1
    24    44    45   ar
    25     2     1    1
    26    30    28    1
    27     1     3    1
    28     6     5    1
    29    29    28    1
    30     4     5    1
    31     4     3    1
    32     4    13    1
    33    14    13    1
    34    27    24    1
    35    49    50    1
    36    49    47   ar
    37    28    31    1
    38    28    19    1
    39     8     5    1
    40     5     7    1
    41     3    17    1
    42    13    16    1
    43    13    15    1
    44    45    47   ar
    45    45    46    1
    46    25    24    1
    47    24    19    1
    48    24    26    1
    49    47    48    1
    50    17    18    1
    51    19    18    1
    52    19    20    1
    53    23    20    1
    54    20    21    1
    55    20    22    1
