@<TRIPOS>MOLECULE
2,3,4,33,46,48,50
 63 67 0 0 0
SMALL
GASTEIGER

@<TRIPOS>ATOM
      1 SI         11.7699    9.0940   15.6111 Si      1  UNL1        0.0000
      2 N           8.3419    7.0529   12.9147 N.3     1  UNL1        0.0000
      3 C          10.4782    5.1719   13.8392 C.3     1  UNL1        0.0000
      4 C          11.8559    5.7753   14.1972 C.3     1  UNL1        0.0000
      5 H          11.8916    6.4121   15.0803 H       1  UNL1        0.0000
      6 C           9.2969    5.5765   14.7239 C.3     1  UNL1        0.0000
      7 H           8.9792    4.7394   15.3581 H       1  UNL1        0.0000
      8 H           9.5718    6.3994   15.3942 H       1  UNL1        0.0000
      9 C           8.0758    5.9731   13.8930 C.3     1  UNL1        0.0000
     10 H           7.7521    5.0842   13.3447 H       1  UNL1        0.0000
     11 H           7.2482    6.2655   14.5577 H       1  UNL1        0.0000
     12 C           7.3604    6.9048   11.8321 C.3     1  UNL1        0.0000
     13 H           6.3325    6.9389   12.2214 H       1  UNL1        0.0000
     14 H           7.5018    5.9482   11.3267 H       1  UNL1        0.0000
     15 H           7.4755    7.7008   11.1039 H       1  UNL1        0.0000
     16 C           8.1287    8.3674   13.5515 C.3     1  UNL1        0.0000
     17 H           7.1402    8.3801   14.0407 H       1  UNL1        0.0000
     18 H           8.1024    9.1279   12.7630 H       1  UNL1        0.0000
     19 C           9.2067    8.7738   14.5536 C.2     1  UNL1        0.0000
     20 C           8.5893    9.5282   15.7197 C.3     1  UNL1        0.0000
     21 H           9.3555   10.0957   16.2416 H       1  UNL1        0.0000
     22 H           7.8501   10.2410   15.3376 H       1  UNL1        0.0000
     23 C           7.9054    8.6047   16.7337 C.3     1  UNL1        0.0000
     24 H           7.0865    8.0570   16.2606 H       1  UNL1        0.0000
     25 H           8.6283    7.8715   17.0952 H       1  UNL1        0.0000
     26 C           7.3495    9.3859   17.9220 C.3     1  UNL1        0.0000
     27 H           6.6197   10.1174   17.5661 H       1  UNL1        0.0000
     28 H           8.1613    9.9383   18.4007 H       1  UNL1        0.0000
     29 C           6.6914    8.4685   18.9456 C.3     1  UNL1        0.0000
     30 H           6.3058    9.0439   19.7838 H       1  UNL1        0.0000
     31 H           7.4101    7.7465   19.3271 H       1  UNL1        0.0000
     32 H           5.8643    7.9225   18.4962 H       1  UNL1        0.0000
     33 C          10.5048    8.5152   14.3191 C.2     1  UNL1        0.0000
     34 C          11.4791    8.4093   17.3920 C.3     1  UNL1        0.0000
     35 H          10.6762    8.9244   17.9081 H       1  UNL1        0.0000
     36 H          12.3777    8.5298   17.9900 H       1  UNL1        0.0000
     37 H          11.2386    7.3493   17.3895 H       1  UNL1        0.0000
     38 C          11.8953   11.0100   15.8185 C.3     1  UNL1        0.0000
     39 H          10.9414   11.5180   15.7193 H       1  UNL1        0.0000
     40 H          12.5687   11.4456   15.0867 H       1  UNL1        0.0000
     41 H          12.2903   11.2536   16.8001 H       1  UNL1        0.0000
     42 C          13.5808    8.5733   15.2493 C.3     1  UNL1        0.0000
     43 H          14.2583    9.2837   15.7134 H       1  UNL1        0.0000
     44 H          13.8120    8.5496   14.1913 H       1  UNL1        0.0000
     45 H          13.8191    7.5968   15.6571 H       1  UNL1        0.0000
     46 B          12.7908    6.0091   12.8570 B       1  UNL1        0.0000
     47 H          13.6184    6.8769   12.8570 H       1  UNL1        0.0000
     48 B          11.8784    5.3477   11.5107 B       1  UNL1        0.0000
     49 H          12.0392    5.5752   10.3529 H       1  UNL1        0.0000
     50 B          10.3685    4.8966   12.2081 B       1  UNL1        0.0000
     51 H           9.3063    4.8532   11.6537 H       1  UNL1        0.0000
     52 B          11.6260    4.1204   14.6515 B       1  UNL1        0.0000
     53 H          11.4241    3.9029   15.7926 H       1  UNL1        0.0000
     54 B          13.1631    4.6657   13.9906 B       1  UNL1        0.0000
     55 H          14.0882    4.7553   14.7165 H       1  UNL1        0.0000
     56 B          13.1563    4.3469   12.2649 B       1  UNL1        0.0000
     57 H          14.1512    4.0947   11.6804 H       1  UNL1        0.0000
     58 B          11.5878    3.6147   11.8660 B       1  UNL1        0.0000
     59 H          11.4396    2.8428   10.9841 H       1  UNL1        0.0000
     60 B          10.6396    3.5168   13.3351 B       1  UNL1        0.0000
     61 H           9.7497    2.7796   13.5804 H       1  UNL1        0.0000
     62 B          12.3892    3.1841   13.4013 B       1  UNL1        0.0000
     63 H          12.8252    2.1092   13.6050 H       1  UNL1        0.0000
@<TRIPOS>BOND
     1    49    48    1
     2    59    58    1
     3    15    12    1
     4    14    12    1
     5    48    50    1
     6    48    56    1
     7    48    46    1
     8    51    50    1
     9    57    56    1
    10    12    13    1
    11    12     2    1
    12    58    56    1
    13    58    60    1
    14    58    62    1
    15    50     3    1
    16    56    54    1
    17    18    16    1
    18    47    46    1
    19    46     4    1
    20     2    16    1
    21     2     9    1
    22    60    61    1
    23    60     3    1
    24    60    52    1
    25    10     9    1
    26    62    63    1
    27    62    52    1
    28    16    17    1
    29    16    19    1
    30     3     4    1
    31     3     6    1
    32     9    11    1
    33     9     6    1
    34    54     4    1
    35    54    52    1
    36    54    55    1
    37    44    42    1
    38     4     5    1
    39    33    19    2
    40    33     1    1
    41    19    20    1
    42    52    53    1
    43     6     7    1
    44     6     8    1
    45    40    38    1
    46    42     1    1
    47    42    45    1
    48    42    43    1
    49    22    20    1
    50     1    38    1
    51     1    34    1
    52    39    38    1
    53    20    21    1
    54    20    23    1
    55    38    41    1
    56    24    23    1
    57    23    25    1
    58    23    26    1
    59    37    34    1
    60    34    35    1
    61    34    36    1
    62    27    26    1
    63    26    28    1
    64    26    29    1
    65    32    29    1
    66    29    31    1
    67    29    30    1
