@<TRIPOS>MOLECULE
1,3,4,33,46,48,50
 63 67 0 0 0
SMALL
GASTEIGER

@<TRIPOS>ATOM
      1 N           0.7366    3.7243   13.9128 N.3     1  UNL1        0.0000
      2 SI          2.9960    4.9351   17.8153 Si      1  UNL1        0.0000
      3 C           0.3018    6.6586   13.8351 C.3     1  UNL1        0.0000
      4 C           0.9221    7.1199   15.1661 C.3     1  UNL1        0.0000
      5 H           0.5302    6.6660   16.0793 H       1  UNL1        0.0000
      6 C          -0.8437    5.6536   13.8937 C.3     1  UNL1        0.0000
      7 H          -1.6874    6.0498   14.4694 H       1  UNL1        0.0000
      8 H          -1.2222    5.4744   12.8826 H       1  UNL1        0.0000
      9 C          -0.4457    4.3347   14.5480 C.3     1  UNL1        0.0000
     10 H          -0.2056    4.5052   15.6056 H       1  UNL1        0.0000
     11 H          -1.2945    3.6287   14.5080 H       1  UNL1        0.0000
     12 C           0.3505    3.2107   12.5960 C.3     1  UNL1        0.0000
     13 H          -0.5104    2.5301   12.6753 H       1  UNL1        0.0000
     14 H           1.1817    2.6662   12.1558 H       1  UNL1        0.0000
     15 H           0.0821    4.0286   11.9288 H       1  UNL1        0.0000
     16 C           1.1342    2.5942   14.7688 C.3     1  UNL1        0.0000
     17 H           1.8598    1.9805   14.2247 H       1  UNL1        0.0000
     18 H           0.2557    1.9535   14.9648 H       1  UNL1        0.0000
     19 C           1.7277    3.0711   16.0925 C.2     1  UNL1        0.0000
     20 C           1.6049    2.0099   17.1680 C.3     1  UNL1        0.0000
     21 H           0.6431    1.4933   17.0904 H       1  UNL1        0.0000
     22 H           1.6549    2.4735   18.1492 H       1  UNL1        0.0000
     23 C           2.7316    0.9781   17.0477 C.3     1  UNL1        0.0000
     24 H           2.6420    0.4427   16.0992 H       1  UNL1        0.0000
     25 H           3.6887    1.5045   17.0443 H       1  UNL1        0.0000
     26 C           2.7079   -0.0308   18.1928 C.3     1  UNL1        0.0000
     27 H           2.7962    0.5013   19.1423 H       1  UNL1        0.0000
     28 H           1.7482   -0.5532   18.1954 H       1  UNL1        0.0000
     29 C           3.8373   -1.0472   18.0755 C.3     1  UNL1        0.0000
     30 H           3.8049   -1.7542   18.9011 H       1  UNL1        0.0000
     31 H           4.8029   -0.5463   18.0903 H       1  UNL1        0.0000
     32 H           3.7563   -1.6040   17.1442 H       1  UNL1        0.0000
     33 C           2.3046    4.2790   16.1878 C.2     1  UNL1        0.0000
     34 C           4.7025    5.7478   17.4656 C.3     1  UNL1        0.0000
     35 H           4.8142    6.0350   16.4229 H       1  UNL1        0.0000
     36 H           5.5172    5.0776   17.7230 H       1  UNL1        0.0000
     37 H           4.8239    6.6390   18.0733 H       1  UNL1        0.0000
     38 C           3.3915    3.8462   19.3594 C.3     1  UNL1        0.0000
     39 H           2.4970    3.5478   19.8986 H       1  UNL1        0.0000
     40 H           4.0125    4.4021   20.0571 H       1  UNL1        0.0000
     41 H           3.9347    2.9445   19.0953 H       1  UNL1        0.0000
     42 C           1.8066    6.2683   18.5340 C.3     1  UNL1        0.0000
     43 H           1.8353    7.1923   17.9678 H       1  UNL1        0.0000
     44 H           2.0914    6.5062   19.5540 H       1  UNL1        0.0000
     45 H           0.7772    5.9213   18.5637 H       1  UNL1        0.0000
     46 B           2.4936    7.5807   14.9866 B       1  UNL1        0.0000
     47 H           3.2231    7.5194   15.9284 H       1  UNL1        0.0000
     48 B           2.8505    7.4680   13.2637 B       1  UNL1        0.0000
     49 H           3.9373    7.4222   12.7692 H       1  UNL1        0.0000
     50 B           1.4027    6.7319   12.6183 B       1  UNL1        0.0000
     51 H           1.2828    5.9817   11.6800 H       1  UNL1        0.0000
     52 B          -0.2149    8.2322   14.4450 B       1  UNL1        0.0000
     53 H          -1.2928    8.2833   14.9201 H       1  UNL1        0.0000
     54 B           1.2340    8.8376   15.1968 B       1  UNL1        0.0000
     55 H           1.1436    9.4085   16.2242 H       1  UNL1        0.0000
     56 B           2.4345    9.0550   13.9365 B       1  UNL1        0.0000
     57 H           3.2484    9.9092   14.0028 H       1  UNL1        0.0000
     58 B           1.7124    8.5129   12.3919 B       1  UNL1        0.0000
     59 H           2.0091    8.9716   11.3449 H       1  UNL1        0.0000
     60 B           0.0896    7.9811   12.7306 B       1  UNL1        0.0000
     61 H          -0.8296    7.9323   11.9912 H       1  UNL1        0.0000
     62 B           0.7227    9.4075   13.5877 B       1  UNL1        0.0000
     63 H           0.3194   10.4958   13.3907 H       1  UNL1        0.0000
@<TRIPOS>BOND
     1    59    58    1
     2    51    50    1
     3    15    12    1
     4    61    60    1
     5    14    12    1
     6    58    60    1
     7    58    62    1
     8    12    13    1
     9    12     1    1
    10    50    48    1
    11    50     3    1
    12    60     3    1
    13    60    52    1
    14    49    48    1
    15     8     6    1
    16    48    56    1
    17    48    46    1
    18    63    62    1
    19    62    56    1
    20    62    52    1
    21     3     6    1
    22     3     4    1
    23     6     7    1
    24     6     9    1
    25     1     9    1
    26     1    16    1
    27    56    57    1
    28    56    54    1
    29    17    16    1
    30    52    53    1
    31    52    54    1
    32    11     9    1
    33     9    10    1
    34    16    18    1
    35    16    19    1
    36    46     4    1
    37    46    47    1
    38     4    54    1
    39     4     5    1
    40    54    55    1
    41    19    33    2
    42    19    20    1
    43    24    23    1
    44    33     2    1
    45    35    34    1
    46    25    23    1
    47    23    20    1
    48    23    26    1
    49    21    20    1
    50    32    29    1
    51    20    22    1
    52    34    36    1
    53    34     2    1
    54    34    37    1
    55     2    42    1
    56     2    38    1
    57    43    42    1
    58    29    31    1
    59    29    26    1
    60    29    30    1
    61    26    28    1
    62    26    27    1
    63    42    45    1
    64    42    44    1
    65    41    38    1
    66    38    39    1
    67    38    40    1
