@<TRIPOS>MOLECULE
2,3,4,31,44,46,48
 61 65 0 0 0
SMALL
GASTEIGER

@<TRIPOS>ATOM
      1 SI          2.0286   -0.2361    8.6747 Si      1  UNL1        0.0000
      2 N           4.2524   -1.6834    4.8260 N.3     1  UNL1        0.0000
      3 C           5.0985    1.1789    4.8315 C.3     1  UNL1        0.0000
      4 C           4.4942    1.6868    6.1538 C.3     1  UNL1        0.0000
      5 H           4.7712    1.1529    7.0654 H       1  UNL1        0.0000
      6 C           6.0813    0.0140    4.8923 C.3     1  UNL1        0.0000
      7 H           6.4523   -0.2011    3.8854 H       1  UNL1        0.0000
      8 H           6.9609    0.2715    5.4927 H       1  UNL1        0.0000
      9 C           5.4814   -1.2439    5.5114 C.3     1  UNL1        0.0000
     10 H           5.2260   -1.0504    6.5612 H       1  UNL1        0.0000
     11 H           6.2273   -2.0589    5.4932 H       1  UNL1        0.0000
     12 C           4.6109   -2.2359    3.5175 C.3     1  UNL1        0.0000
     13 H           5.3785   -3.0179    3.6152 H       1  UNL1        0.0000
     14 H           4.9957   -1.4531    2.8649 H       1  UNL1        0.0000
     15 H           3.7320   -2.6724    3.0502 H       1  UNL1        0.0000
     16 C           3.6730   -2.7490    5.6598 C.3     1  UNL1        0.0000
     17 H           4.4513   -3.4849    5.9327 H       1  UNL1        0.0000
     18 H           2.9189   -3.2926    5.0804 H       1  UNL1        0.0000
     19 C           3.0528   -2.1790    6.9329 C.2     1  UNL1        0.0000
     20 C           2.9566   -3.2301    7.9839 C.ar    1  UNL1        0.0000
     21 C           4.0275   -3.4930    8.8300 C.ar    1  UNL1        0.0000
     22 H           4.9329   -2.9082    8.7405 H       1  UNL1        0.0000
     23 C           3.9362   -4.4817    9.7930 C.ar    1  UNL1        0.0000
     24 H           4.7718   -4.6719   10.4512 H       1  UNL1        0.0000
     25 C           2.7761   -5.2275    9.9139 C.ar    1  UNL1        0.0000
     26 H           2.7048   -5.9999   10.6653 H       1  UNL1        0.0000
     27 C           1.7075   -4.9789    9.0692 C.ar    1  UNL1        0.0000
     28 H           0.8009   -5.5594    9.1611 H       1  UNL1        0.0000
     29 C           1.7983   -3.9880    8.1089 C.ar    1  UNL1        0.0000
     30 H           0.9631   -3.7865    7.4531 H       1  UNL1        0.0000
     31 C           2.6736   -0.8959    7.0294 C.2     1  UNL1        0.0000
     32 C           0.4495    0.8067    8.3386 C.3     1  UNL1        0.0000
     33 H           0.4284    1.6774    8.9857 H       1  UNL1        0.0000
     34 H          -0.4492    0.2349    8.5488 H       1  UNL1        0.0000
     35 H           0.3995    1.1533    7.3092 H       1  UNL1        0.0000
     36 C           1.5010   -1.3958   10.1134 C.3     1  UNL1        0.0000
     37 H           1.0815   -0.8190   10.9330 H       1  UNL1        0.0000
     38 H           2.3379   -1.9634   10.5060 H       1  UNL1        0.0000
     39 H           0.7476   -2.1101    9.7980 H       1  UNL1        0.0000
     40 C           3.3617    0.8992    9.4740 C.3     1  UNL1        0.0000
     41 H           3.0723    1.1461   10.4906 H       1  UNL1        0.0000
     42 H           3.4849    1.8335    8.9375 H       1  UNL1        0.0000
     43 H           4.3301    0.4098    9.5301 H       1  UNL1        0.0000
     44 B           3.0158    2.3804    5.9293 B       1  UNL1        0.0000
     45 H           2.2392    2.3872    6.8359 H       1  UNL1        0.0000
     46 B           2.7249    2.3801    4.1907 B       1  UNL1        0.0000
     47 H           1.6666    2.5191    3.6547 H       1  UNL1        0.0000
     48 B           4.0772    1.4544    3.5749 B       1  UNL1        0.0000
     49 H           4.1306    0.7204    2.6171 H       1  UNL1        0.0000
     50 B           5.8125    2.6390    5.5228 B       1  UNL1        0.0000
     51 H           6.8636    2.5137    6.0418 H       1  UNL1        0.0000
     52 B           4.4355    3.4293    6.2385 B       1  UNL1        0.0000
     53 H           4.5638    3.9471    7.2896 H       1  UNL1        0.0000
     54 B           3.3399    3.8634    4.9411 B       1  UNL1        0.0000
     55 H           2.6590    4.8268    5.0059 H       1  UNL1        0.0000
     56 B           4.0433    3.2681    3.4056 B       1  UNL1        0.0000
     57 H           3.8658    3.7997    2.3662 H       1  UNL1        0.0000
     58 B           5.5530    2.4899    3.7888 B       1  UNL1        0.0000
     59 H           6.4878    2.3292    3.0859 H       1  UNL1        0.0000
     60 B           5.0987    3.9670    4.6736 B       1  UNL1        0.0000
     61 H           5.6669    4.9884    4.5338 H       1  UNL1        0.0000
@<TRIPOS>BOND
     1    57    56    1
     2    49    48    1
     3    14    12    1
     4    15    12    1
     5    59    58    1
     6    56    58    1
     7    12    13    1
     8    12     2    1
     9    48    46    1
    10    48     3    1
    11    47    46    1
    12    58    60    1
    13    58     3    1
    14     7     6    1
    15    46    54    1
    16    46    44    1
    17    61    60    1
    18    60    54    1
    19    60    50    1
    20     2     9    1
    21     2    16    1
    22     3     6    1
    23     3     4    1
    24     6     8    1
    25     6     9    1
    26    54    55    1
    27    54    52    1
    28    18    16    1
    29    11     9    1
    30     9    10    1
    31    50    51    1
    32    50     4    1
    33    50    52    1
    34    16    17    1
    35    16    19    1
    36    44     4    1
    37    44    45    1
    38     4     5    1
    39    52    53    1
    40    19    31    2
    41    19    20    1
    42    31     1    1
    43    35    32    1
    44    30    29    1
    45    20    29   ar
    46    20    21   ar
    47    29    27   ar
    48    32    34    1
    49    32     1    1
    50    32    33    1
    51     1    40    1
    52     1    36    1
    53    22    21    1
    54    21    23   ar
    55    42    40    1
    56    27    28    1
    57    27    25   ar
    58    40    43    1
    59    40    41    1
    60    23    25   ar
    61    23    24    1
    62    39    36    1
    63    25    26    1
    64    36    38    1
    65    36    37    1
