@<TRIPOS>MOLECULE
1,2,3,30,35,37,39
 52 56 0 0 0
SMALL
GASTEIGER

@<TRIPOS>ATOM
      1 N           4.9864    3.9906    9.2630 N.3     1  UNL1        0.0000
      2 C           7.9003    3.6822    8.4942 C.3     1  UNL1        0.0000
      3 C           8.4133    5.0700    8.9232 C.3     1  UNL1        0.0000
      4 H           7.8965    5.9487    8.5254 H       1  UNL1        0.0000
      5 C           6.7352    3.6095    7.5106 C.3     1  UNL1        0.0000
      6 H           7.0252    4.0016    6.5288 H       1  UNL1        0.0000
      7 H           6.4611    2.5613    7.3496 H       1  UNL1        0.0000
      8 C           5.5133    4.4108    7.9524 C.3     1  UNL1        0.0000
      9 H           5.7787    5.4723    8.0293 H       1  UNL1        0.0000
     10 H           4.7195    4.3243    7.1890 H       1  UNL1        0.0000
     11 C           4.3009    2.7032    9.1140 C.3     1  UNL1        0.0000
     12 H           3.5331    2.7503    8.3272 H       1  UNL1        0.0000
     13 H           3.8190    2.4248   10.0490 H       1  UNL1        0.0000
     14 H           5.0169    1.9231    8.8520 H       1  UNL1        0.0000
     15 C           4.0211    5.0299    9.6732 C.3     1  UNL1        0.0000
     16 H           3.3733    4.6263   10.4578 H       1  UNL1        0.0000
     17 H           3.3654    5.2951    8.8254 H       1  UNL1        0.0000
     18 C           4.7344    6.2728   10.1918 C.2     1  UNL1        0.0000
     19 C           3.9054    7.5007   10.0970 C.ar    1  UNL1        0.0000
     20 C           2.6277    7.5429   10.6509 C.ar    1  UNL1        0.0000
     21 H           2.2434    6.6790   11.1748 H       1  UNL1        0.0000
     22 C           1.8549    8.6854   10.5589 C.ar    1  UNL1        0.0000
     23 H           0.8686    8.7033   11.0001 H       1  UNL1        0.0000
     24 C           2.3414    9.8060    9.9068 C.ar    1  UNL1        0.0000
     25 H           1.7366   10.6979    9.8352 H       1  UNL1        0.0000
     26 C           3.6071    9.7755    9.3465 C.ar    1  UNL1        0.0000
     27 H           3.9917   10.6447    8.8327 H       1  UNL1        0.0000
     28 C           4.3809    8.6335    9.4398 C.ar    1  UNL1        0.0000
     29 H           5.3635    8.6109    8.9908 H       1  UNL1        0.0000
     30 C           5.9695    6.1614   10.7141 C.2     1  UNL1        0.0000
     31 C           6.5982    7.4014   11.3349 C.3     1  UNL1        0.0000
     32 H           5.8708    8.1986   11.5179 H       1  UNL1        0.0000
     33 H           7.3752    7.8048   10.6797 H       1  UNL1        0.0000
     34 H           7.0710    7.1409   12.2883 H       1  UNL1        0.0000
     35 B           9.0734    5.0357   10.4277 B       1  UNL1        0.0000
     36 H           9.0741    6.0407   11.0690 H       1  UNL1        0.0000
     37 B           9.0708    3.3602   10.9559 B       1  UNL1        0.0000
     38 H           9.1874    2.9931   12.0898 H       1  UNL1        0.0000
     39 B           8.1684    2.5564    9.6642 B       1  UNL1        0.0000
     40 H           7.4079    1.6207    9.7171 H       1  UNL1        0.0000
     41 B           9.3747    4.2648    7.7141 B       1  UNL1        0.0000
     42 H           9.2640    4.6405    6.6017 H       1  UNL1        0.0000
     43 B          10.1562    5.1483    8.9941 B       1  UNL1        0.0000
     44 H          10.6799    6.1723    8.7372 H       1  UNL1        0.0000
     45 B          10.5631    4.0124   10.2630 B       1  UNL1        0.0000
     46 H          11.5146    4.1680   10.9455 H       1  UNL1        0.0000
     47 B           9.9684    2.3975    9.7636 B       1  UNL1        0.0000
     48 H          10.4928    1.3883   10.0834 H       1  UNL1        0.0000
     49 B           9.2108    2.5799    8.1973 B       1  UNL1        0.0000
     50 H           9.0607    1.7626    7.3582 H       1  UNL1        0.0000
     51 B          10.6875    3.5064    8.5548 B       1  UNL1        0.0000
     52 H          11.7162    3.2896    8.0243 H       1  UNL1        0.0000
@<TRIPOS>BOND
     1     6     5    1
     2    42    41    1
     3    10     8    1
     4     7     5    1
     5    50    49    1
     6     5     8    1
     7     5     2    1
     8    41    51    1
     9    41     3    1
    10    41    43    1
    11     8     9    1
    12     8     1    1
    13    52    51    1
    14    49     2    1
    15    49    51    1
    16    49    47    1
    17    12    11    1
    18     2     3    1
    19     2    39    1
    20     4     3    1
    21    51    43    1
    22    44    43    1
    23    17    15    1
    24    27    26    1
    25    14    11    1
    26     3    35    1
    27    29    28    1
    28    43    45    1
    29    11     1    1
    30    11    13    1
    31     1    15    1
    32    26    28   ar
    33    26    24   ar
    34    28    19   ar
    35    39    40    1
    36    39    37    1
    37    15    18    1
    38    15    16    1
    39    47    48    1
    40    25    24    1
    41    24    22   ar
    42    19    18    1
    43    19    20   ar
    44    18    30    2
    45    45    46    1
    46    45    37    1
    47    35    37    1
    48    35    36    1
    49    22    20   ar
    50    22    23    1
    51    20    21    1
    52    33    31    1
    53    30    31    1
    54    37    38    1
    55    31    32    1
    56    31    34    1
