@<TRIPOS>MOLECULE
1,3,4,21,34,36,38
 51 54 0 0 0
SMALL
GASTEIGER

@<TRIPOS>ATOM
      1 N           4.4627    4.1702   10.3344 N.3     1  UNL1        0.0000
      2 SI          4.5359    0.1368    7.9954 Si      1  UNL1        0.0000
      3 C           3.9255    5.1835    7.5577 C.3     1  UNL1        0.0000
      4 C           3.8121    3.8529    6.7859 C.3     1  UNL1        0.0000
      5 H           3.0953    3.1164    7.1565 H       1  UNL1        0.0000
      6 C           2.9966    5.4253    8.7440 C.3     1  UNL1        0.0000
      7 H           3.2125    6.4082    9.1754 H       1  UNL1        0.0000
      8 H           1.9487    5.4560    8.4250 H       1  UNL1        0.0000
      9 C           3.0927    4.3486    9.8196 C.3     1  UNL1        0.0000
     10 H           2.4134    4.5989   10.6544 H       1  UNL1        0.0000
     11 H           2.7662    3.3866    9.4047 H       1  UNL1        0.0000
     12 C           4.8082    5.3124   11.1826 C.3     1  UNL1        0.0000
     13 H           4.0500    5.4708   11.9645 H       1  UNL1        0.0000
     14 H           4.8834    6.2206   10.5846 H       1  UNL1        0.0000
     15 H           5.7672    5.1352   11.6641 H       1  UNL1        0.0000
     16 C           4.4380    2.9383   11.1449 C.3     1  UNL1        0.0000
     17 H           3.5667    2.9499   11.8245 H       1  UNL1        0.0000
     18 H           5.3292    2.9067   11.7819 H       1  UNL1        0.0000
     19 C           4.3759    1.7169   10.2491 C.2     1  UNL1        0.0000
     20 H           3.9543    0.8514   10.7665 H       1  UNL1        0.0000
     21 C           4.7783    1.7338    8.9712 C.2     1  UNL1        0.0000
     22 C           6.1501   -0.3367    7.0730 C.3     1  UNL1        0.0000
     23 H           6.7569   -1.0182    7.6618 H       1  UNL1        0.0000
     24 H           6.7501    0.5405    6.8452 H       1  UNL1        0.0000
     25 H           5.9227   -0.8383    6.1380 H       1  UNL1        0.0000
     26 C           4.0715   -1.3956    9.0593 C.3     1  UNL1        0.0000
     27 H           4.7825   -1.5448    9.8661 H       1  UNL1        0.0000
     28 H           4.0607   -2.3022    8.4627 H       1  UNL1        0.0000
     29 H           3.0874   -1.2882    9.5046 H       1  UNL1        0.0000
     30 C           3.1153    0.2980    6.7118 C.3     1  UNL1        0.0000
     31 H           2.9243   -0.6644    6.2473 H       1  UNL1        0.0000
     32 H           3.3556    0.9989    5.9201 H       1  UNL1        0.0000
     33 H           2.1865    0.6187    7.1754 H       1  UNL1        0.0000
     34 B           5.2413    3.4354    6.0712 B       1  UNL1        0.0000
     35 H           5.4764    2.2786    5.8789 H       1  UNL1        0.0000
     36 B           6.3557    4.7648    6.3736 B       1  UNL1        0.0000
     37 H           7.5448    4.7159    6.2788 H       1  UNL1        0.0000
     38 B           5.4478    5.7926    7.4619 B       1  UNL1        0.0000
     39 H           5.8377    6.4943    8.3658 H       1  UNL1        0.0000
     40 B           3.0318    5.2136    6.0336 B       1  UNL1        0.0000
     41 H           1.8571    5.2731    6.1166 H       1  UNL1        0.0000
     42 B           3.9078    4.0658    5.0568 B       1  UNL1        0.0000
     43 H           3.2963    3.3335    4.3644 H       1  UNL1        0.0000
     44 B           5.5210    4.7037    4.8106 B       1  UNL1        0.0000
     45 H           6.1249    4.4869    3.8184 H       1  UNL1        0.0000
     46 B           5.6467    6.2480    5.7093 B       1  UNL1        0.0000
     47 H           6.3418    7.1385    5.3650 H       1  UNL1        0.0000
     48 B           4.1124    6.5308    6.4812 B       1  UNL1        0.0000
     49 H           3.6420    7.5622    6.8113 H       1  UNL1        0.0000
     50 B           4.1340    5.8223    4.8469 B       1  UNL1        0.0000
     51 H           3.7589    6.4098    3.8982 H       1  UNL1        0.0000
@<TRIPOS>BOND
     1    45    44    1
     2    51    50    1
     3    43    42    1
     4    44    50    1
     5    44    42    1
     6    44    36    1
     7    50    40    1
     8    50    48    1
     9    42    40    1
    10    47    46    1
    11    46    48    1
    12    35    34    1
    13    32    30    1
    14    40    41    1
    15    40     4    1
    16    34    36    1
    17    34     4    1
    18    25    22    1
    19    31    30    1
    20    37    36    1
    21    36    38    1
    22    48    49    1
    23    48     3    1
    24    30    33    1
    25    30     2    1
    26     4     5    1
    27     4     3    1
    28    24    22    1
    29    22    23    1
    30    22     2    1
    31    38     3    1
    32    38    39    1
    33     3     6    1
    34     2    21    1
    35     2    26    1
    36     8     6    1
    37    28    26    1
    38     6     7    1
    39     6     9    1
    40    21    19    2
    41    26    29    1
    42    26    27    1
    43    11     9    1
    44     9     1    1
    45     9    10    1
    46    19    20    1
    47    19    16    1
    48     1    16    1
    49     1    12    1
    50    14    12    1
    51    16    18    1
    52    16    17    1
    53    12    15    1
    54    12    13    1
