@<TRIPOS>MOLECULE
1,2,3,15,18,20,22
 35 39 0 0 0
SMALL
GASTEIGER

@<TRIPOS>ATOM
      1 N           3.2126    5.1959   14.8838 N.3     1  UNL1        0.0000
      2 C           3.4093    2.3032   14.1531 C.3     1  UNL1        0.0000
      3 C           2.0185    1.7425   14.5383 C.3     1  UNL1        0.0000
      4 H           1.7259    1.8210   15.5924 H       1  UNL1        0.0000
      5 C           4.2602    2.9140   15.2630 C.3     1  UNL1        0.0000
      6 H           3.8496    2.6427   16.2430 H       1  UNL1        0.0000
      7 H           5.2709    2.4915   15.2330 H       1  UNL1        0.0000
      8 C           4.4374    4.4381   15.1868 C.3     1  UNL1        0.0000
      9 H           4.8610    4.7749   16.1518 H       1  UNL1        0.0000
     10 H           5.1751    4.6768   14.4078 H       1  UNL1        0.0000
     11 C           3.5120    6.6084   15.1331 C.3     1  UNL1        0.0000
     12 H           3.8219    6.7772   16.1767 H       1  UNL1        0.0000
     13 H           2.6391    7.2291   14.9350 H       1  UNL1        0.0000
     14 H           4.3269    6.9388   14.4823 H       1  UNL1        0.0000
     15 C           2.0141    4.6907   15.6751 C.3     1  UNL1        0.0000
     16 H           1.4851    5.5749   16.0734 H       1  UNL1        0.0000
     17 H           2.3786    4.1660   16.5788 H       1  UNL1        0.0000
     18 B           0.9488    1.8189   13.2840 B       1  UNL1        0.0000
     19 H          -0.2265    1.9109   13.5338 H       1  UNL1        0.0000
     20 B           1.8546    2.4373   11.9009 B       1  UNL1        0.0000
     21 H           1.3742    2.9374   10.9299 H       1  UNL1        0.0000
     22 B           3.4252    2.8352   12.5903 B       1  UNL1        0.0000
     23 H           4.1776    3.7378   12.3151 H       1  UNL1        0.0000
     24 B           3.2914    0.5709   14.3169 B       1  UNL1        0.0000
     25 H           3.7612    0.0998   15.2896 H       1  UNL1        0.0000
     26 B           1.6675    0.2425   13.7364 B       1  UNL1        0.0000
     27 H           1.0171   -0.5572   14.3089 H       1  UNL1        0.0000
     28 B           1.6047    0.6865   12.0392 B       1  UNL1        0.0000
     29 H           0.9026    0.1190   11.2783 H       1  UNL1        0.0000
     30 B           3.2091    1.3417   11.5851 B       1  UNL1        0.0000
     31 H           3.6615    1.2423   10.4981 H       1  UNL1        0.0000
     32 B           4.2237    1.2774   13.0017 B       1  UNL1        0.0000
     33 H           5.4010    1.2192   13.0607 H       1  UNL1        0.0000
     34 B           3.0884   -0.0549   12.7066 B       1  UNL1        0.0000
     35 H           3.4457   -1.1384   12.4158 H       1  UNL1        0.0000
@<TRIPOS>BOND
     1    31    30    1
     2    21    20    1
     3    29    28    1
     4    30    20    1
     5    30    28    1
     6    30    32    1
     7    20    22    1
     8    20    18    1
     9    28    34    1
    10    28    26    1
    11    23    22    1
    12    35    34    1
    13    22     2    1
    14    34    24    1
    15    32    33    1
    16    32     2    1
    17    32    24    1
    18    18    19    1
    19    18     3    1
    20    26    27    1
    21    26    24    1
    22    26     3    1
    23     2     3    1
    24     2     5    1
    25    24    25    1
    26    10     8    1
    27    14    11    1
    28     3     4    1
    29     1    11    1
    30     1     8    1
    31     1    15    1
    32    13    11    1
    33    11    12    1
    34     8     5    1
    35     8     9    1
    36     7     5    1
    37     5     6    1
    38    15    16    1
    39    15    17    1
