@<TRIPOS>MOLECULE
1,2,3,26,34,36,38
 51 55 0 0 0
SMALL
GASTEIGER

@<TRIPOS>ATOM
      1 N           5.5308    5.5407    5.0057 N.3     1  UNL1        0.0000
      2 C           6.1079    3.7664    7.3721 C.3     1  UNL1        0.0000
      3 C           6.1175    4.8024    8.5090 C.3     1  UNL1        0.0000
      4 H           6.7986    5.6493    8.3981 H       1  UNL1        0.0000
      5 C           7.0673    3.9705    6.2035 C.3     1  UNL1        0.0000
      6 H           8.1100    3.9203    6.5372 H       1  UNL1        0.0000
      7 H           6.9393    3.1557    5.4835 H       1  UNL1        0.0000
      8 C           6.8984    5.3187    5.5097 C.3     1  UNL1        0.0000
      9 H           7.1224    6.1251    6.2179 H       1  UNL1        0.0000
     10 H           7.6187    5.3982    4.6757 H       1  UNL1        0.0000
     11 C           5.3338    4.7108    3.8137 C.3     1  UNL1        0.0000
     12 H           6.1041    4.9163    3.0551 H       1  UNL1        0.0000
     13 H           4.3597    4.9035    3.3693 H       1  UNL1        0.0000
     14 H           5.3847    3.6552    4.0780 H       1  UNL1        0.0000
     15 C           5.4550    6.9675    4.6362 C.3     1  UNL1        0.0000
     16 H           4.5470    7.1411    4.0455 H       1  UNL1        0.0000
     17 H           6.3084    7.2248    3.9861 H       1  UNL1        0.0000
     18 C           5.4295    7.8732    5.8616 C.2     1  UNL1        0.0000
     19 C           5.9741    9.2569    5.5457 C.3     1  UNL1        0.0000
     20 H           5.5878    9.5787    4.5729 H       1  UNL1        0.0000
     21 H           5.6362    9.9785    6.2888 H       1  UNL1        0.0000
     22 C           7.5043    9.2898    5.5018 C.3     1  UNL1        0.0000
     23 H           7.8545   10.2994    5.2966 H       1  UNL1        0.0000
     24 H           7.8927    8.6345    4.7244 H       1  UNL1        0.0000
     25 H           7.9232    8.9709    6.4536 H       1  UNL1        0.0000
     26 C           4.9107    7.4048    7.0085 C.2     1  UNL1        0.0000
     27 C           4.7858    8.3620    8.1949 C.3     1  UNL1        0.0000
     28 H           4.5465    9.3770    7.8513 H       1  UNL1        0.0000
     29 H           3.9589    8.0343    8.8381 H       1  UNL1        0.0000
     30 C           6.0545    8.4437    9.0514 C.3     1  UNL1        0.0000
     31 H           5.9449    9.2161    9.8108 H       1  UNL1        0.0000
     32 H           6.9173    8.6934    8.4379 H       1  UNL1        0.0000
     33 H           6.2417    7.4995    9.5569 H       1  UNL1        0.0000
     34 B           4.6544    4.9051    9.2579 B       1  UNL1        0.0000
     35 H           4.3470    5.9226    9.8052 H       1  UNL1        0.0000
     36 B           3.6332    3.6665    8.5447 B       1  UNL1        0.0000
     37 H           2.4432    3.6205    8.6301 H       1  UNL1        0.0000
     38 B           4.6332    3.0615    7.2230 B       1  UNL1        0.0000
     39 H           4.3220    2.6468    6.1324 H       1  UNL1        0.0000
     40 B           6.9784    3.3218    8.8444 B       1  UNL1        0.0000
     41 H           8.1559    3.3622    8.7891 H       1  UNL1        0.0000
     42 B           6.0149    4.0681   10.0875 B       1  UNL1        0.0000
     43 H           6.5627    4.5969   10.9880 H       1  UNL1        0.0000
     44 B           4.4420    3.2998   10.0766 B       1  UNL1        0.0000
     45 H           3.8066    3.1791   11.0650 H       1  UNL1        0.0000
     46 B           4.4297    2.0948    8.7484 B       1  UNL1        0.0000
     47 H           3.7889    1.1021    8.7851 H       1  UNL1        0.0000
     48 B           5.9960    2.1444    7.9832 B       1  UNL1        0.0000
     49 H           6.5370    1.2899    7.3736 H       1  UNL1        0.0000
     50 B           5.8966    2.3210    9.7520 B       1  UNL1        0.0000
     51 H           6.2930    1.4979   10.4949 H       1  UNL1        0.0000
@<TRIPOS>BOND
     1    12    11    1
     2    13    11    1
     3    11    14    1
     4    11     1    1
     5    17    15    1
     6    16    15    1
     7    20    19    1
     8    15     1    1
     9    15    18    1
    10    10     8    1
    11    24    22    1
    12     1     8    1
    13    23    22    1
    14     7     5    1
    15    22    19    1
    16    22    25    1
    17     8     5    1
    18     8     9    1
    19    19    18    1
    20    19    21    1
    21    18    26    2
    22    39    38    1
    23     5     6    1
    24     5     2    1
    25    26    27    1
    26    38     2    1
    27    38    36    1
    28     2    48    1
    29     2     3    1
    30    49    48    1
    31    28    27    1
    32    48    46    1
    33    48    40    1
    34    27    29    1
    35    27    30    1
    36     4     3    1
    37    32    30    1
    38     3    34    1
    39     3    42    1
    40    36    37    1
    41    36    34    1
    42    36    44    1
    43    46    47    1
    44    46    50    1
    45    41    40    1
    46    40    50    1
    47    40    42    1
    48    30    33    1
    49    30    31    1
    50    34    35    1
    51    50    44    1
    52    50    51    1
    53    44    42    1
    54    44    45    1
    55    42    43    1
