@<TRIPOS>MOLECULE
1,2,3,11,18,20,22
 35 40 0 0 0
SMALL
GASTEIGER

@<TRIPOS>ATOM
      1 N          10.7273    5.3250    7.2752 N.3     1  UNL1        0.0000
      2 C           9.2679    6.2976    9.7878 C.3     1  UNL1        0.0000
      3 C           7.8705    6.7047    9.2516 C.3     1  UNL1        0.0000
      4 H           7.8474    7.4837    8.4776 H       1  UNL1        0.0000
      5 C          10.4660    7.0214    9.1685 C.3     1  UNL1        0.0000
      6 H          10.1136    7.8942    8.6028 H       1  UNL1        0.0000
      7 H          11.1116    7.4165    9.9629 H       1  UNL1        0.0000
      8 C          11.3933    6.1898    8.2599 C.3     1  UNL1        0.0000
      9 H          12.0648    6.9022    7.7419 H       1  UNL1        0.0000
     10 H          12.0278    5.5480    8.8880 H       1  UNL1        0.0000
     11 C           9.5818    6.0229    6.5788 C.3     1  UNL1        0.0000
     12 H           9.5298    5.5913    5.5560 H       1  UNL1        0.0000
     13 H           9.8475    7.0919    6.4300 H       1  UNL1        0.0000
     14 C          11.7358    4.8520    6.3245 C.3     1  UNL1        0.0000
     15 H          12.1032    5.6735    5.6885 H       1  UNL1        0.0000
     16 H          11.3003    4.0794    5.6872 H       1  UNL1        0.0000
     17 H          12.5919    4.4238    6.8480 H       1  UNL1        0.0000
     18 B           6.7833    5.4778    9.3279 B       1  UNL1        0.0000
     19 H           5.8605    5.4768    8.5617 H       1  UNL1        0.0000
     20 B           7.6070    4.1200   10.0703 B       1  UNL1        0.0000
     21 H           7.2735    2.9742    9.9235 H       1  UNL1        0.0000
     22 B           9.2764    4.7231   10.3132 B       1  UNL1        0.0000
     23 H          10.3157    4.1207   10.2754 H       1  UNL1        0.0000
     24 B           8.3203    7.3528   10.8037 B       1  UNL1        0.0000
     25 H           8.6478    8.4854   10.8453 H       1  UNL1        0.0000
     26 B           6.6798    6.8071   10.5213 B       1  UNL1        0.0000
     27 H           5.8265    7.6172   10.4194 H       1  UNL1        0.0000
     28 B           6.5465    5.1429   11.0769 B       1  UNL1        0.0000
     29 H           5.5275    4.7222   11.5034 H       1  UNL1        0.0000
     30 B           8.1427    4.6459   11.6898 B       1  UNL1        0.0000
     31 H           8.2844    3.8714   12.5709 H       1  UNL1        0.0000
     32 B           9.2292    6.0288   11.5161 B       1  UNL1        0.0000
     33 H          10.2015    6.2861   12.1348 H       1  UNL1        0.0000
     34 B           7.5501    6.3194   11.9854 B       1  UNL1        0.0000
     35 H           7.2529    6.7154   13.0548 H       1  UNL1        0.0000
@<TRIPOS>BOND
     1    12    11    1
     2    16    14    1
     3    15    14    1
     4    14    17    1
     5    14     1    1
     6    13    11    1
     7    11     1    1
     8     1     8    1
     9     9     8    1
    10     8    10    1
    11     8     5    1
    12     4     3    1
    13    19    18    1
    14     6     5    1
    15     5     2    1
    16     5     7    1
    17     3    18    1
    18     3     2    1
    19     3    24    1
    20    18    20    1
    21    18    26    1
    22     2    22    1
    23     2    24    1
    24    21    20    1
    25    20    28    1
    26    23    22    1
    27    22    32    1
    28    22    30    1
    29    27    26    1
    30    26    28    1
    31    26    34    1
    32    24    25    1
    33    24    34    1
    34    28    29    1
    35    28    30    1
    36    32    30    1
    37    32    34    1
    38    32    33    1
    39    30    31    1
    40    34    35    1
