@<TRIPOS>MOLECULE
1,2,3,15,18,20,22
 35 40 0 0 0
SMALL
GASTEIGER

@<TRIPOS>ATOM
      1 N           1.8876   10.6629    1.9170 N.3     1  UNL1        0.0000
      2 C           3.4872   11.6646   -0.5492 C.3     1  UNL1        0.0000
      3 C           4.9058   12.0300   -0.0459 C.3     1  UNL1        0.0000
      4 H           4.9622   12.8018    0.7296 H       1  UNL1        0.0000
      5 C           2.3289   12.4254    0.1004 C.3     1  UNL1        0.0000
      6 H           1.7191   12.9031   -0.6756 H       1  UNL1        0.0000
      7 H           2.7299   13.2433    0.7108 H       1  UNL1        0.0000
      8 C           1.3300   11.6251    0.9560 C.3     1  UNL1        0.0000
      9 H           0.7080   12.3697    1.4871 H       1  UNL1        0.0000
     10 H           0.6592   11.0631    0.2934 H       1  UNL1        0.0000
     11 C           0.8353   10.3285    2.8733 C.3     1  UNL1        0.0000
     12 H           0.5542   11.1926    3.4954 H       1  UNL1        0.0000
     13 H           1.1839    9.5263    3.5236 H       1  UNL1        0.0000
     14 H          -0.0566    9.9823    2.3490 H       1  UNL1        0.0000
     15 C           3.1339   11.1892    2.6099 C.3     1  UNL1        0.0000
     16 H           3.1335   10.7146    3.6110 H       1  UNL1        0.0000
     17 H           2.9772   12.2680    2.8230 H       1  UNL1        0.0000
     18 B           5.9702   10.7905   -0.1471 B       1  UNL1        0.0000
     19 H           6.9011   10.7606    0.6052 H       1  UNL1        0.0000
     20 B           5.0943    9.4385   -0.8957 B       1  UNL1        0.0000
     21 H           5.4048    8.2839   -0.7999 H       1  UNL1        0.0000
     22 B           3.4142   10.1040   -1.0806 B       1  UNL1        0.0000
     23 H           2.3681    9.5222   -1.0243 H       1  UNL1        0.0000
     24 B           4.4392   12.7050   -1.5828 B       1  UNL1        0.0000
     25 H           4.1427   13.8456   -1.6119 H       1  UNL1        0.0000
     26 B           6.0720   12.1215   -1.3416 B       1  UNL1        0.0000
     27 H           6.9461   12.9097   -1.2595 H       1  UNL1        0.0000
     28 B           6.1523   10.4554   -1.8969 B       1  UNL1        0.0000
     29 H           7.1451   10.0067   -2.3529 H       1  UNL1        0.0000
     30 B           4.5162   10.0014   -2.4783 B       1  UNL1        0.0000
     31 H           4.3400    9.2338   -3.3582 H       1  UNL1        0.0000
     32 B           3.4794   11.4149   -2.2832 B       1  UNL1        0.0000
     33 H           2.5044   11.6993   -2.8830 H       1  UNL1        0.0000
     34 B           5.1574   11.6559   -2.7843 B       1  UNL1        0.0000
     35 H           5.4424   12.0418   -3.8598 H       1  UNL1        0.0000
@<TRIPOS>BOND
     1    35    34    1
     2    31    30    1
     3    33    32    1
     4    34    32    1
     5    34    24    1
     6    34    26    1
     7    30    32    1
     8    30    22    1
     9    30    20    1
    10    29    28    1
    11    32    22    1
    12    28    26    1
    13    28    20    1
    14    28    18    1
    15    25    24    1
    16    24     2    1
    17    24     3    1
    18    26    27    1
    19    22    23    1
    20    22     2    1
    21    20    21    1
    22    20    18    1
    23     6     5    1
    24     2     3    1
    25     2     5    1
    26    18     3    1
    27    18    19    1
    28     3     4    1
    29     5     7    1
    30     5     8    1
    31    10     8    1
    32     8     9    1
    33     8     1    1
    34     1    15    1
    35     1    11    1
    36    14    11    1
    37    15    17    1
    38    15    16    1
    39    11    12    1
    40    11    13    1
