@<TRIPOS>MOLECULE
1,2
 12 12 0 0 0
SMALL
GASTEIGER

@<TRIPOS>ATOM
      1 S           6.6150    5.6601    2.6517 S.2     1  UNL1       -0.0498
      2 F           8.3718    3.3350    3.0680 F       1  UNL1       -0.2243
      3 F           9.7593    1.9541    1.1662 F       1  UNL1       -0.2032
      4 F           9.6458    2.7470   -1.4650 F       1  UNL1       -0.1996
      5 F           8.1297    4.9120   -2.1450 F       1  UNL1       -0.1993
      6 F           6.7443    6.2684   -0.2571 F       1  UNL1       -0.2014
      7 C           7.5155    4.8274    1.4520 C.2     1  UNL1        0.0819
      8 C           8.3115    3.7182    1.7550 C.3     1  UNL1        0.2435
      9 C           9.0221    3.0090    0.8044 C.2     1  UNL1        0.1844
     10 C           8.9624    3.4105   -0.5270 C.2     1  UNL1        0.1958
     11 C           8.1843    4.5178   -0.8704 C.2     1  UNL1        0.1969
     12 C           7.4765    5.2084    0.0990 C.2     1  UNL1        0.1751
@<TRIPOS>BOND
     1     5    11    1
     2     4    10    1
     3    11    10    1
     4    11    12    2
     5    10     9    2
     6     6    12    1
     7    12     7    1
     8     9     3    1
     9     9     8    1
    10     7     8    1
    11     7     1    2
    12     8     2    1
