@<TRIPOS>MOLECULE
1,6
 12 12 0 0 0
SMALL
GASTEIGER

@<TRIPOS>ATOM
      1 S           7.7100    2.5315    5.8129 S.2     1  UNL1       -0.0498
      2 F           7.5793   -0.3696    6.4579 F       1  UNL1       -0.2014
      3 F           6.2069   -2.2768    5.1141 F       1  UNL1       -0.1993
      4 F           4.7069   -1.6257    2.9295 F       1  UNL1       -0.1996
      5 F           4.5948    0.9939    2.1031 F       1  UNL1       -0.2032
      6 F           5.9693    2.9163    3.4712 F       1  UNL1       -0.2243
      7 C           6.8170    1.3199    4.9893 C.2     1  UNL1        0.0819
      8 C           6.8552   -0.0282    5.3876 C.2     1  UNL1        0.1751
      9 C           6.1541   -1.0072    4.7039 C.2     1  UNL1        0.1969
     10 C           5.3840   -0.6786    3.5865 C.2     1  UNL1        0.1958
     11 C           5.3253    0.6474    3.1678 C.2     1  UNL1        0.1844
     12 C           6.0290    1.6080    3.8703 C.3     1  UNL1        0.2435
@<TRIPOS>BOND
     1     5    11    1
     2     4    10    1
     3    11    10    2
     4    11    12    1
     5     6    12    1
     6    10     9    1
     7    12     7    1
     8     9     3    1
     9     9     8    2
    10     7     8    1
    11     7     1    2
    12     8     2    1
