@<TRIPOS>MOLECULE
1,2,3,4,6,9,10
 10 13 0 0 0
SMALL
GASTEIGER

@<TRIPOS>ATOM
      1 C           1.0014    1.3698    2.2802 C.3     1  UNL1        0.0000
      2 C           1.6036    2.6320    2.6809 C.3     1  UNL1        0.0000
      3 C           0.5296    2.4528    3.4913 C.3     1  UNL1        0.0000
      4 C          -0.4558    1.4049    3.7918 C.3     1  UNL1        0.0000
      5 C          -0.1608    0.7319    2.5213 C.3     1  UNL1        0.0000
      6 C          -0.5829    0.9005    5.0488 C.3     1  UNL1        0.0000
      7 C          -0.8097   -0.4164    5.5194 C.3     1  UNL1        0.0000
      8 C          -0.2774   -1.2996    6.3480 C.3     1  UNL1        0.0000
      9 C           0.6396   -0.1522    6.2720 C.3     1  UNL1        0.0000
     10 C           0.5561    1.1998    6.0597 C.3     1  UNL1        0.0000
@<TRIPOS>BOND
     1     1     5    1
     2     1     2    1
     3     1     3    1
     4     5     4    1
     5     2     3    1
     6     3     4    1
     7     4     6    1
     8     6     7    1
     9     6    10    1
    10     7     9    1
    11     7     8    1
    12    10     9    1
    13     9     8    1
