@<TRIPOS>MOLECULE
1,3,5,7,9,11,13
 14 14 0 0 0
SMALL
GASTEIGER

@<TRIPOS>ATOM
      1 C           0.7313    3.7333    6.2046 C.2     1  UNL1       -0.0831
      2 H           0.3976    3.0398    6.9741 H       1  UNL1        0.0572
      3 C           1.1773    4.9938    6.6557 C.2     1  UNL1       -0.0800
      4 H           1.1244    5.1577    7.7331 H       1  UNL1        0.0575
      5 C           1.6937    6.0877    5.8841 C.3     1  UNL1        0.0049
      6 H           1.9333    6.9917    6.4433 H       1  UNL1        0.0394
      7 C           1.6159    6.2597    4.4482 C.2     1  UNL1       -0.0800
      8 H           1.8350    7.2648    4.0807 H       1  UNL1        0.0575
      9 C           1.2040    5.3203    3.4776 C.2     1  UNL1       -0.0831
     10 H           1.1713    5.6822    2.4510 H       1  UNL1        0.0572
     11 C           0.9065    3.9345    3.6382 C.3     1  UNL1       -0.0093
     12 H           0.6132    3.4110    2.7312 H       1  UNL1        0.0355
     13 C           0.7558    3.2011    4.8695 C.3     1  UNL1       -0.0093
     14 H           0.3695    2.1881    4.7665 H       1  UNL1        0.0355
@<TRIPOS>BOND
     1    10     9    1
     2    12    11    1
     3     9    11    1
     4     9     7    2
     5    11    13    1
     6     8     7    1
     7     7     5    1
     8    14    13    1
     9    13     1    1
    10     5     6    1
    11     5     3    1
    12     1     3    2
    13     1     2    1
    14     3     4    1
