@<TRIPOS>MOLECULE
1,3,5,7,9,11,13
 14 14 0 0 0
SMALL
GASTEIGER

@<TRIPOS>ATOM
      1 C           4.0545    4.5345    4.1078 C.2     1  UNL1       -0.0831
      2 H           4.6141    4.5348    5.0448 H       1  UNL1        0.0572
      3 C           3.7099    3.2507    3.5967 C.2     1  UNL1       -0.0800
      4 H           4.0663    2.3939    4.1665 H       1  UNL1        0.0575
      5 C           3.0423    2.9271    2.3548 C.3     1  UNL1        0.0049
      6 H           3.0051    1.8669    2.1007 H       1  UNL1        0.0394
      7 C           2.6702    3.8226    1.3040 C.2     1  UNL1       -0.0800
      8 H           2.3347    3.3484    0.3799 H       1  UNL1        0.0575
      9 C           3.7095    5.8180    3.5961 C.3     1  UNL1       -0.0093
     10 H           4.0657    6.6752    4.1655 H       1  UNL1        0.0355
     11 C           3.0422    6.1409    2.3539 C.3     1  UNL1       -0.0093
     12 H           3.0050    7.2009    2.0991 H       1  UNL1        0.0355
     13 C           2.6702    5.2447    1.3035 C.2     1  UNL1       -0.0831
     14 H           2.3347    5.7184    0.3792 H       1  UNL1        0.0572
@<TRIPOS>BOND
     1    14    13    1
     2     8     7    1
     3    13     7    2
     4    13    11    1
     5     7     5    1
     6    12    11    1
     7     6     5    1
     8    11     9    1
     9     5     3    1
    10     9     1    1
    11     9    10    1
    12     3     1    2
    13     3     4    1
    14     1     2    1
