@<TRIPOS>MOLECULE
4,5,7,8,10,11,13
 50 50 0 0 0
SMALL
GASTEIGER

@<TRIPOS>ATOM
      1 SI          2.4272    5.3127   16.1311 Si      1  UNL1        0.0000
      2 SI          6.4307    1.3715   16.7708 Si      1  UNL1        0.0000
      3 SI          6.6280    2.5583   11.2959 Si      1  UNL1        0.0000
      4 C           3.6805    4.2232   15.1438 C.3     1  UNL1        0.0000
      5 C           4.5206    3.3285   15.8549 C.3     1  UNL1        0.0000
      6 H           4.3240    3.3017   16.9224 H       1  UNL1        0.0000
      7 C           5.5231    2.4316   15.4352 C.3     1  UNL1        0.0000
      8 C           6.0338    2.3487   14.1275 C.3     1  UNL1        0.0000
      9 H           6.8660    1.6581   14.0205 H       1  UNL1        0.0000
     10 C           5.6340    2.9539   12.9053 C.2     1  UNL1        0.0000
     11 C           4.6024    3.8852   12.7802 C.2     1  UNL1        0.0000
     12 H           4.4220    4.2526   11.7718 H       1  UNL1        0.0000
     13 C           3.7504    4.4504   13.7672 C.3     1  UNL1        0.0000
     14 H           3.0380    5.1748   13.3768 H       1  UNL1        0.0000
     15 C           2.9248    7.1076   15.7318 C.3     1  UNL1        0.0000
     16 H           2.7649    7.3608   14.6872 H       1  UNL1        0.0000
     17 H           3.9724    7.2996   15.9613 H       1  UNL1        0.0000
     18 H           2.3325    7.8017   16.3192 H       1  UNL1        0.0000
     19 C           0.7034    4.8388   15.4800 C.3     1  UNL1        0.0000
     20 H           0.5936    5.0271   14.4158 H       1  UNL1        0.0000
     21 H          -0.0552    5.4236   15.9897 H       1  UNL1        0.0000
     22 H           0.4747    3.7908   15.6545 H       1  UNL1        0.0000
     23 C           2.6190    4.9573   17.9879 C.3     1  UNL1        0.0000
     24 H           3.6158    5.1891   18.3543 H       1  UNL1        0.0000
     25 H           2.3912    3.9266   18.2447 H       1  UNL1        0.0000
     26 H           1.9255    5.5802   18.5435 H       1  UNL1        0.0000
     27 C           5.5369    1.5609   18.4373 C.3     1  UNL1        0.0000
     28 H           5.6058    2.5702   18.8340 H       1  UNL1        0.0000
     29 H           5.9985    0.9037   19.1670 H       1  UNL1        0.0000
     30 H           4.4870    1.2861   18.3834 H       1  UNL1        0.0000
     31 C           8.1937    2.0891   16.8462 C.3     1  UNL1        0.0000
     32 H           8.1875    3.1550   17.0704 H       1  UNL1        0.0000
     33 H           8.7352    1.9520   15.9139 H       1  UNL1        0.0000
     34 H           8.7698    1.5978   17.6236 H       1  UNL1        0.0000
     35 C           6.3764   -0.4246   16.1434 C.3     1  UNL1        0.0000
     36 H           6.9368   -0.5638   15.2236 H       1  UNL1        0.0000
     37 H           5.3601   -0.7663   15.9663 H       1  UNL1        0.0000
     38 H           6.8129   -1.0843   16.8859 H       1  UNL1        0.0000
     39 C           7.1898    4.2541   10.6343 C.3     1  UNL1        0.0000
     40 H           6.3646    4.8354   10.2325 H       1  UNL1        0.0000
     41 H           7.9049    4.1247    9.8286 H       1  UNL1        0.0000
     42 H           7.6730    4.8551   11.4039 H       1  UNL1        0.0000
     43 C           5.4027    1.6638   10.1477 C.3     1  UNL1        0.0000
     44 H           5.0468    0.7310   10.5769 H       1  UNL1        0.0000
     45 H           5.8885    1.4221    9.2081 H       1  UNL1        0.0000
     46 H           4.5331    2.2717    9.9140 H       1  UNL1        0.0000
     47 C           8.1255    1.4747   11.7379 C.3     1  UNL1        0.0000
     48 H           7.8388    0.5034   12.1312 H       1  UNL1        0.0000
     49 H           8.7886    1.9525   12.4544 H       1  UNL1        0.0000
     50 H           8.7088    1.2902   10.8416 H       1  UNL1        0.0000
@<TRIPOS>BOND
     1    45    43    1
     2    41    39    1
     3    46    43    1
     4    43    44    1
     5    43     3    1
     6    40    39    1
     7    39     3    1
     8    39    42    1
     9    50    47    1
    10     3    47    1
    11     3    10    1
    12    47    48    1
    13    47    49    1
    14    12    11    1
    15    11    10    2
    16    11    13    1
    17    10     8    1
    18    14    13    1
    19    13     4    1
    20     9     8    1
    21     8     7    1
    22    20    19    1
    23    16    15    1
    24     4     5    1
    25     4     1    1
    26    36    35    1
    27     7     5    1
    28     7     2    1
    29    19    22    1
    30    19    21    1
    31    19     1    1
    32    15    17    1
    33    15     1    1
    34    15    18    1
    35     5     6    1
    36    33    31    1
    37    37    35    1
    38     1    23    1
    39    35     2    1
    40    35    38    1
    41     2    31    1
    42     2    27    1
    43    31    32    1
    44    31    34    1
    45    23    25    1
    46    23    24    1
    47    23    26    1
    48    30    27    1
    49    27    28    1
    50    27    29    1
