@<TRIPOS>MOLECULE
1,2,3,4,5,6,7
 14 14 0 0 0
SMALL
GASTEIGER

@<TRIPOS>ATOM
      1 C           7.0493    3.9541   -2.7020 C.3     1  UNL1       -0.0130
      2 C           7.7050    3.4728   -1.5509 C.3     1  UNL1       -0.0272
      3 C           7.6215    2.1698   -1.0134 C.3     1  UNL1       -0.0303
      4 C           7.0297    1.0099   -1.5514 C.3     1  UNL1       -0.0272
      5 C           6.2174    0.9361   -2.7046 C.3     1  UNL1       -0.0130
      6 C           6.0121    1.8960   -3.7338 C.2     1  UNL1       -0.0837
      7 C           6.3750    3.2340   -3.7291 C.2     1  UNL1       -0.0837
      8 H           7.1908    5.0134   -2.9108 H       1  UNL1        0.0352
      9 H           8.2524    4.2027   -0.9617 H       1  UNL1        0.0312
     10 H           8.1262    2.0316   -0.0595 H       1  UNL1        0.0309
     11 H           7.1280    0.1000   -0.9667 H       1  UNL1        0.0312
     12 H           5.7939   -0.0457   -2.9116 H       1  UNL1        0.0352
     13 H           5.4270    1.5556   -4.5839 H       1  UNL1        0.0572
     14 H           6.0456    3.8279   -4.5777 H       1  UNL1        0.0572
@<TRIPOS>BOND
     1    13     6    1
     2    14     7    1
     3     6     7    2
     4     6     5    1
     5     7     1    1
     6    12     5    1
     7     8     1    1
     8     5     4    1
     9     1     2    1
    10     4     3    1
    11     4    11    1
    12     2     3    1
    13     2     9    1
    14     3    10    1
