@<TRIPOS>MOLECULE
2,3,4,5,6,13,21
 45 47 0 0 0
SMALL
GASTEIGER

@<TRIPOS>ATOM
      1 SI         -0.1756    4.7453    4.3821 Si      1  UNL1        0.0000
      2 C           1.6709    4.7386    4.7907 C.3     1  UNL1        0.0000
      3 C           2.2574    3.6424    5.5073 C.3     1  UNL1        0.0000
      4 C           3.6115    3.5237    5.0980 C.3     1  UNL1        0.0000
      5 C           3.8594    4.5361    4.1257 C.2     1  UNL1        0.0000
      6 C           2.6728    5.2650    3.9328 C.2     1  UNL1        0.0000
      7 C           1.5899    2.9066    6.6361 C.3     1  UNL1        0.0000
      8 C           4.7020    2.7052    5.7297 C.3     1  UNL1        0.0000
      9 C           5.2321    4.8302    3.5891 C.3     1  UNL1        0.0000
     10 C           2.5396    6.5369    3.1403 C.3     1  UNL1        0.0000
     11 C          -0.8129    6.3633    3.5711 C.3     1  UNL1        0.0000
     12 C          -1.3474    4.4884    5.8706 C.3     1  UNL1        0.0000
     13 C           0.5639    3.5448    1.8428 C.2     1  UNL1        0.0000
     14 C           0.2854    2.4833    0.9936 C.2     1  UNL1        0.0000
     15 C          -0.5603    1.5806    1.6825 C.ar    1  UNL1        0.0000
     16 C          -1.1789    0.3912    1.2850 C.ar    1  UNL1        0.0000
     17 C          -2.0208   -0.2502    2.1635 C.ar    1  UNL1        0.0000
     18 C          -2.2539    0.2676    3.4425 C.ar    1  UNL1        0.0000
     19 C          -1.6434    1.4280    3.8649 C.ar    1  UNL1        0.0000
     20 C          -0.7861    2.1040    2.9943 C.ar    1  UNL1        0.0000
     21 C          -0.0650    3.3366    3.1254 C.3     1  UNL1        0.0000
     22 H           1.2018    3.6184    7.3670 H       1  UNL1        0.0000
     23 H           2.2968    2.2523    7.1451 H       1  UNL1        0.0000
     24 H           0.7604    2.2986    6.2673 H       1  UNL1        0.0000
     25 H           5.3837    3.3571    6.2839 H       1  UNL1        0.0000
     26 H           5.2850    2.1737    4.9752 H       1  UNL1        0.0000
     27 H           4.2938    1.9755    6.4259 H       1  UNL1        0.0000
     28 H           5.8772    5.1900    4.3956 H       1  UNL1        0.0000
     29 H           5.2114    5.5960    2.8147 H       1  UNL1        0.0000
     30 H           5.6949    3.9308    3.1763 H       1  UNL1        0.0000
     31 H           1.9663    7.2645    3.7125 H       1  UNL1        0.0000
     32 H           2.0280    6.4062    2.1829 H       1  UNL1        0.0000
     33 H           3.5183    6.9719    2.9375 H       1  UNL1        0.0000
     34 H          -0.3834    6.5469    2.5926 H       1  UNL1        0.0000
     35 H          -0.6064    7.2276    4.1944 H       1  UNL1        0.0000
     36 H          -1.8892    6.3038    3.4443 H       1  UNL1        0.0000
     37 H          -1.1810    3.5584    6.3990 H       1  UNL1        0.0000
     38 H          -2.3763    4.4961    5.5271 H       1  UNL1        0.0000
     39 H          -1.2344    5.3001    6.5820 H       1  UNL1        0.0000
     40 H           0.9912    4.4941    1.5235 H       1  UNL1        0.0000
     41 H           0.5900    2.3872   -0.0400 H       1  UNL1        0.0000
     42 H          -1.0085   -0.0072    0.2929 H       1  UNL1        0.0000
     43 H          -2.5166   -1.1641    1.8673 H       1  UNL1        0.0000
     44 H          -2.9290   -0.2568    4.1048 H       1  UNL1        0.0000
     45 H          -1.8381    1.8198    4.8541 H       1  UNL1        0.0000
@<TRIPOS>BOND
     1    41    14    1
     2    42    16    1
     3    14    15    1
     4    14    13    2
     5    16    15   ar
     6    16    17   ar
     7    40    13    1
     8    15    20   ar
     9    13    21    1
    10    43    17    1
    11    17    18   ar
    12    32    10    1
    13    34    11    1
    14    29     9    1
    15    33    10    1
    16    20    21    1
    17    20    19   ar
    18    21     1    1
    19    10    31    1
    20    10     6    1
    21    30     9    1
    22    18    19   ar
    23    18    44    1
    24    36    11    1
    25    11    35    1
    26    11     1    1
    27     9     5    1
    28     9    28    1
    29    19    45    1
    30     6     5    2
    31     6     2    1
    32     5     4    1
    33     1     2    1
    34     1    12    1
    35     2     3    1
    36    26     8    1
    37     4     3    1
    38     4     8    1
    39     3     7    1
    40    38    12    1
    41     8    25    1
    42     8    27    1
    43    12    37    1
    44    12    39    1
    45    24     7    1
    46     7    23    1
    47     7    22    1
