@<TRIPOS>MOLECULE
2,3,4,5,6,13,14
 39 42 0 0 0
SMALL
GASTEIGER

@<TRIPOS>ATOM
      1 SI          7.2440    6.9765   10.6899 Si      1  UNL1        0.0000
      2 C           5.5328    6.6052   11.3818 C.3     1  UNL1        0.0000
      3 C           4.3626    6.4773   10.5877 C.2     1  UNL1        0.0000
      4 C           3.3449    5.8276   11.3062 C.2     1  UNL1        0.0000
      5 C           3.8432    5.5717   12.6133 C.ar    1  UNL1        0.0000
      6 C           5.2187    6.0177   12.6503 C.ar    1  UNL1        0.0000
      7 C           3.2200    5.1348   13.7940 C.ar    1  UNL1        0.0000
      8 C           3.9419    5.1008   14.9615 C.ar    1  UNL1        0.0000
      9 C           5.2912    5.4877   14.9916 C.ar    1  UNL1        0.0000
     10 C           5.9299    5.9391   13.8621 C.ar    1  UNL1        0.0000
     11 C           7.1293    8.1279    9.1751 C.3     1  UNL1        0.0000
     12 C           8.4589    7.7284   11.9563 C.3     1  UNL1        0.0000
     13 C           7.7035    5.2109   10.1928 C.2     1  UNL1        0.0000
     14 C           7.5448    4.1031   11.1382 C.3     1  UNL1        0.0000
     15 C           7.8574    2.9031   10.3942 C.ar    1  UNL1        0.0000
     16 C           8.1044    3.2795    9.0399 C.ar    1  UNL1        0.0000
     17 C           7.9955    4.6943    8.9502 C.2     1  UNL1        0.0000
     18 C           7.9581    1.5607   10.7692 C.ar    1  UNL1        0.0000
     19 C           8.2797    0.6231    9.8121 C.ar    1  UNL1        0.0000
     20 C           8.5076    0.9917    8.4823 C.ar    1  UNL1        0.0000
     21 C           8.4237    2.3074    8.0881 C.ar    1  UNL1        0.0000
     22 H           4.2223    6.9568    9.6274 H       1  UNL1        0.0000
     23 H           2.3137    5.7304   10.9966 H       1  UNL1        0.0000
     24 H           2.1708    4.8691   13.7859 H       1  UNL1        0.0000
     25 H           3.4674    4.7859   15.8797 H       1  UNL1        0.0000
     26 H           5.8253    5.4463   15.9298 H       1  UNL1        0.0000
     27 H           6.9523    6.2876   13.9169 H       1  UNL1        0.0000
     28 H           8.1160    8.3035    8.7613 H       1  UNL1        0.0000
     29 H           6.7125    9.0906    9.4510 H       1  UNL1        0.0000
     30 H           6.5128    7.7111    8.3858 H       1  UNL1        0.0000
     31 H           9.2943    8.1914   11.4419 H       1  UNL1        0.0000
     32 H           8.8681    6.9804   12.6276 H       1  UNL1        0.0000
     33 H           7.9781    8.4927   12.5582 H       1  UNL1        0.0000
     34 H           7.8133    4.2162   12.1905 H       1  UNL1        0.0000
     35 H           8.1500    5.2690    8.0531 H       1  UNL1        0.0000
     36 H           7.8011    1.2620   11.7967 H       1  UNL1        0.0000
     37 H           8.3665   -0.4178   10.0890 H       1  UNL1        0.0000
     38 H           8.7600    0.2279    7.7607 H       1  UNL1        0.0000
     39 H           8.6103    2.5907    7.0612 H       1  UNL1        0.0000
@<TRIPOS>BOND
     1    39    21    1
     2    38    20    1
     3    35    17    1
     4    21    20   ar
     5    21    16   ar
     6    30    11    1
     7    20    19   ar
     8    28    11    1
     9    17    16    1
    10    17    13    2
    11    16    15   ar
    12    11    29    1
    13    11     1    1
    14    22     3    1
    15    19    37    1
    16    19    18   ar
    17    13     1    1
    18    13    14    1
    19    15    18   ar
    20    15    14    1
    21     3     4    2
    22     3     2    1
    23     1     2    1
    24     1    12    1
    25    18    36    1
    26    23     4    1
    27    14    34    1
    28     4     5    1
    29     2     6    1
    30    31    12    1
    31    12    33    1
    32    12    32    1
    33     5     6   ar
    34     5     7   ar
    35     6    10   ar
    36    24     7    1
    37     7     8   ar
    38    10    27    1
    39    10     9   ar
    40     8     9   ar
    41     8    25    1
    42     9    26    1
