@<TRIPOS>MOLECULE
1,3,5,7,9,11,13
 14 14 0 0 0
SMALL
GASTEIGER

@<TRIPOS>ATOM
      1 C           2.2865    6.6700    3.6691 C.2     1  UNL1       -0.0800
      2 H           2.0023    5.7686    3.1290 H       1  UNL1        0.0575
      3 C           3.5211    6.6135    4.3750 C.2     1  UNL1       -0.0831
      4 H           4.0741    5.6772    4.2853 H       1  UNL1        0.0572
      5 C           4.1433    7.6300    5.1561 C.3     1  UNL1       -0.0093
      6 H           5.1019    7.3714    5.6044 H       1  UNL1        0.0355
      7 C           3.6191    8.9199    5.5316 C.3     1  UNL1       -0.0093
      8 H           4.2115    9.4739    6.2610 H       1  UNL1        0.0355
      9 C           2.3293    9.4644    5.2467 C.2     1  UNL1       -0.0831
     10 H           2.0761   10.3778    5.7863 H       1  UNL1        0.0572
     11 C           1.3085    8.9400    4.3989 C.2     1  UNL1       -0.0800
     12 H           0.3963    9.5335    4.3293 H       1  UNL1        0.0575
     13 C           1.3145    7.7308    3.6439 C.3     1  UNL1        0.0049
     14 H           0.3945    7.5113    3.1051 H       1  UNL1        0.0394
@<TRIPOS>BOND
     1    14    13    1
     2     2     1    1
     3    13     1    1
     4    13    11    1
     5     1     3    2
     6     4     3    1
     7    12    11    1
     8     3     5    1
     9    11     9    2
    10     5     7    1
    11     5     6    1
    12     9     7    1
    13     9    10    1
    14     7     8    1
