@<TRIPOS>MOLECULE
1,3,5,7,9,11,13
 14 14 0 0 0
SMALL
GASTEIGER

@<TRIPOS>ATOM
      1 C           7.5649    6.2032    5.1691 C.3     1  UNL1        0.0049
      2 H           8.2986    6.4419    5.9406 H       1  UNL1        0.0394
      3 C           7.9915    6.4411    3.8105 C.2     1  UNL1       -0.0800
      4 H           8.9953    6.8515    3.7064 H       1  UNL1        0.0575
      5 C           7.3296    6.0931    2.6017 C.2     1  UNL1       -0.0831
      6 H           7.8819    6.2970    1.6831 H       1  UNL1        0.0572
      7 C           6.0288    5.5457    2.4313 C.3     1  UNL1       -0.0093
      8 H           5.7187    5.3574    1.4041 H       1  UNL1        0.0355
      9 C           5.1090    5.0835    3.4435 C.3     1  UNL1       -0.0093
     10 H           4.2154    4.5800    3.0717 H       1  UNL1        0.0355
     11 C           5.2968    5.0374    4.8523 C.2     1  UNL1       -0.0831
     12 H           4.5088    4.5454    5.4242 H       1  UNL1        0.0572
     13 C           6.3934    5.5371    5.6226 C.2     1  UNL1       -0.0800
     14 H           6.3230    5.3723    6.6988 H       1  UNL1        0.0575
@<TRIPOS>BOND
     1     8     7    1
     2     6     5    1
     3     7     5    1
     4     7     9    1
     5     5     3    2
     6    10     9    1
     7     9    11    1
     8     4     3    1
     9     3     1    1
    10    11    12    1
    11    11    13    2
    12     1    13    1
    13     1     2    1
    14    13    14    1
