@<TRIPOS>MOLECULE
1,3,5,7,9,11,13
 14 14 0 0 0
SMALL
GASTEIGER

@<TRIPOS>ATOM
      1 C           2.0957    2.6481   -0.1152 C.3     1  UNL1       -0.0093
      2 H           1.9137    3.2146   -1.0293 H       1  UNL1        0.0355
      3 C           3.4634    2.5967    0.3195 C.2     1  UNL1       -0.0831
      4 H           4.1581    3.2024   -0.2605 H       1  UNL1        0.0572
      5 C           4.0174    1.8836    1.4114 C.2     1  UNL1       -0.0800
      6 H           5.0903    2.0155    1.5616 H       1  UNL1        0.0575
      7 C           3.3522    1.0726    2.3736 C.3     1  UNL1        0.0049
      8 H           3.9795    0.6218    3.1404 H       1  UNL1        0.0394
      9 C           1.9868    0.5904    2.3378 C.2     1  UNL1       -0.0800
     10 H           1.7504   -0.1988    3.0535 H       1  UNL1        0.0575
     11 C           1.0127    0.8195    1.3281 C.2     1  UNL1       -0.0831
     12 H           0.1098    0.2114    1.3941 H       1  UNL1        0.0572
     13 C           1.0229    1.7712    0.2797 C.3     1  UNL1       -0.0093
     14 H           0.1402    1.7822   -0.3612 H       1  UNL1        0.0355
@<TRIPOS>BOND
     1     2     1    1
     2    14    13    1
     3     4     3    1
     4     1    13    1
     5     1     3    1
     6    13    11    1
     7     3     5    2
     8    11    12    1
     9    11     9    2
    10     5     6    1
    11     5     7    1
    12     9     7    1
    13     9    10    1
    14     7     8    1
