@<TRIPOS>MOLECULE
3,4,6,17,19,20,45
 61 63 0 0 0
SMALL
GASTEIGER

@<TRIPOS>ATOM
      1 SI         -2.8771    0.8218    4.8492 Si      1  UNL1        0.0000
      2 SI         -0.0988    1.4075    6.7014 Si      1  UNL1        0.0000
      3 C          -1.9434    2.4553    4.7270 C.3     1  UNL1        0.0000
      4 C          -1.8545    3.2912    3.5847 C.3     1  UNL1        0.0000
      5 H          -2.6302    3.3882    2.8334 H       1  UNL1        0.0000
      6 C          -0.7077    4.1163    3.7069 C.2     1  UNL1        0.0000
      7 C          -0.3687    5.3262    2.8574 C.3     1  UNL1        0.0000
      8 H           0.3796    5.0578    2.0960 H       1  UNL1        0.0000
      9 C          -1.6128    5.8637    2.1457 C.3     1  UNL1        0.0000
     10 H          -1.3574    6.7492    1.5668 H       1  UNL1        0.0000
     11 H          -2.3709    6.1376    2.8769 H       1  UNL1        0.0000
     12 H          -2.0327    5.1253    1.4688 H       1  UNL1        0.0000
     13 C           0.2268    6.4419    3.7220 C.3     1  UNL1        0.0000
     14 H           1.1866    6.1472    4.1349 H       1  UNL1        0.0000
     15 H          -0.4499    6.6854    4.5386 H       1  UNL1        0.0000
     16 H           0.3810    7.3357    3.1210 H       1  UNL1        0.0000
     17 C          -0.0540    3.7365    4.9026 C.2     1  UNL1        0.0000
     18 H           0.7976    4.2401    5.3387 H       1  UNL1        0.0000
     19 C          -0.8093    2.7292    5.5514 C.3     1  UNL1        0.0000
     20 C          -1.3478   -0.2800    4.6735 C.2     1  UNL1        0.0000
     21 C          -1.1344   -1.4889    3.9831 C.2     1  UNL1        0.0000
     22 C          -2.1903   -2.2355    3.2116 C.3     1  UNL1        0.0000
     23 H          -2.7933   -1.5108    2.6525 H       1  UNL1        0.0000
     24 C          -1.6036   -3.2443    2.2242 C.3     1  UNL1        0.0000
     25 H          -0.8916   -2.7689    1.5525 H       1  UNL1        0.0000
     26 H          -2.3968   -3.6875    1.6247 H       1  UNL1        0.0000
     27 H          -1.0937   -4.0448    2.7543 H       1  UNL1        0.0000
     28 C          -3.1179   -2.9570    4.1971 C.3     1  UNL1        0.0000
     29 H          -3.5848   -2.2410    4.8688 H       1  UNL1        0.0000
     30 H          -2.5479   -3.6667    4.7926 H       1  UNL1        0.0000
     31 H          -3.8980   -3.4980    3.6647 H       1  UNL1        0.0000
     32 C           0.1731   -1.9214    4.2381 C.2     1  UNL1        0.0000
     33 H           0.6180   -2.8185    3.8458 H       1  UNL1        0.0000
     34 C           0.8008   -1.0243    5.1052 C.2     1  UNL1        0.0000
     35 C           2.1450   -1.2211    5.7534 C.3     1  UNL1        0.0000
     36 H           2.5435   -0.2440    6.0476 H       1  UNL1        0.0000
     37 C           3.1489   -1.8901    4.8140 C.3     1  UNL1        0.0000
     38 H           3.2127   -1.3481    3.8725 H       1  UNL1        0.0000
     39 H           2.8512   -2.9138    4.6024 H       1  UNL1        0.0000
     40 H           4.1368   -1.9127    5.2699 H       1  UNL1        0.0000
     41 C           1.9711   -2.0588    7.0263 C.3     1  UNL1        0.0000
     42 H           1.2841   -1.5642    7.7090 H       1  UNL1        0.0000
     43 H           2.9265   -2.1988    7.5285 H       1  UNL1        0.0000
     44 H           1.5629   -3.0354    6.7772 H       1  UNL1        0.0000
     45 C          -0.1104    0.0184    5.4083 C.3     1  UNL1        0.0000
     46 C          -3.9135    0.5762    6.4448 C.3     1  UNL1        0.0000
     47 H          -4.9727    0.6382    6.2175 H       1  UNL1        0.0000
     48 H          -3.6922    1.3322    7.1884 H       1  UNL1        0.0000
     49 H          -3.7326   -0.3949    6.8933 H       1  UNL1        0.0000
     50 C          -4.1310    0.7759    3.4041 C.3     1  UNL1        0.0000
     51 H          -4.6636   -0.1675    3.3705 H       1  UNL1        0.0000
     52 H          -3.6593    0.9376    2.4397 H       1  UNL1        0.0000
     53 H          -4.8721    1.5569    3.5429 H       1  UNL1        0.0000
     54 C          -1.0602    0.9773    8.3029 C.3     1  UNL1        0.0000
     55 H          -1.6658    1.8110    8.6413 H       1  UNL1        0.0000
     56 H          -0.3662    0.7353    9.1011 H       1  UNL1        0.0000
     57 H          -1.7120    0.1239    8.1639 H       1  UNL1        0.0000
     58 C           1.6168    2.0144    7.3120 C.3     1  UNL1        0.0000
     59 H           1.4848    2.8822    7.9502 H       1  UNL1        0.0000
     60 H           2.2846    2.2980    6.5051 H       1  UNL1        0.0000
     61 H           2.1099    1.2532    7.9059 H       1  UNL1        0.0000
@<TRIPOS>BOND
     1    12     9    1
     2    25    24    1
     3    10     9    1
     4    26    24    1
     5     8     7    1
     6     9     7    1
     7     9    11    1
     8    24    27    1
     9    24    22    1
    10    52    50    1
    11    23    22    1
    12     5     4    1
    13     7     6    1
    14     7    13    1
    15    16    13    1
    16    22    21    1
    17    22    28    1
    18    51    50    1
    19    50    53    1
    20    50     1    1
    21     4     6    1
    22     4     3    1
    23    31    28    1
    24     6    17    2
    25    13    14    1
    26    13    15    1
    27    33    32    1
    28    38    37    1
    29    21    32    1
    30    21    20    2
    31    28    30    1
    32    28    29    1
    33    32    34    2
    34    39    37    1
    35    20     1    1
    36    20    45    1
    37     3     1    1
    38     3    19    1
    39    37    40    1
    40    37    35    1
    41     1    46    1
    42    17    18    1
    43    17    19    1
    44    34    45    1
    45    34    35    1
    46    45     2    1
    47    19     2    1
    48    35    36    1
    49    35    41    1
    50    47    46    1
    51    46    49    1
    52    46    48    1
    53    60    58    1
    54     2    58    1
    55     2    54    1
    56    44    41    1
    57    41    43    1
    58    41    42    1
    59    58    61    1
    60    58    59    1
    61    57    54    1
    62    54    55    1
    63    54    56    1
