@<TRIPOS>MOLECULE
2,3,31,32,34,35,37
 48 49 0 0 0
SMALL
GASTEIGER

@<TRIPOS>ATOM
      1 SI         -0.2722    2.6326    0.3728 Si      1  UNL1        0.0000
      2 C           1.1959    1.5148    0.0050 C.2     1  UNL1        0.0000
      3 C           2.4022    1.5445    0.8954 C.3     1  UNL1        0.0000
      4 C           3.3848    0.6963    0.1744 C.2     1  UNL1        0.0000
      5 C           2.8513    0.2857   -1.0064 C.2     1  UNL1        0.0000
      6 C           1.5031    0.7970   -1.1126 C.2     1  UNL1        0.0000
      7 C           2.1574    1.1081    2.3406 C.3     1  UNL1        0.0000
      8 H           1.7373    0.1004    2.3502 H       1  UNL1        0.0000
      9 H           1.4575    1.7726    2.8467 H       1  UNL1        0.0000
     10 H           3.0940    1.1019    2.8960 H       1  UNL1        0.0000
     11 C           4.7145    0.3275    0.7483 C.3     1  UNL1        0.0000
     12 H           4.6143   -0.5273    1.4197 H       1  UNL1        0.0000
     13 H           5.1130    1.1746    1.3039 H       1  UNL1        0.0000
     14 H           5.4170    0.0604   -0.0374 H       1  UNL1        0.0000
     15 C           3.4844   -0.5532   -2.0667 C.3     1  UNL1        0.0000
     16 H           4.5365   -0.7229   -1.8561 H       1  UNL1        0.0000
     17 H           3.3996   -0.0639   -3.0364 H       1  UNL1        0.0000
     18 H           2.9877   -1.5217   -2.1350 H       1  UNL1        0.0000
     19 C           0.6424    0.5292   -2.2999 C.3     1  UNL1        0.0000
     20 H           0.6801   -0.5285   -2.5582 H       1  UNL1        0.0000
     21 H           1.0001    1.0920   -3.1639 H       1  UNL1        0.0000
     22 H          -0.3887    0.8052   -2.1061 H       1  UNL1        0.0000
     23 C          -1.4588    3.0098   -1.0736 C.3     1  UNL1        0.0000
     24 H          -2.0735    3.8745   -0.8403 H       1  UNL1        0.0000
     25 H          -2.1278    2.1743   -1.2487 H       1  UNL1        0.0000
     26 H          -0.9338    3.2181   -1.9994 H       1  UNL1        0.0000
     27 C          -1.3581    2.0814    1.8465 C.3     1  UNL1        0.0000
     28 H          -0.8232    2.0613    2.7899 H       1  UNL1        0.0000
     29 H          -1.7471    1.0840    1.6705 H       1  UNL1        0.0000
     30 H          -2.2062    2.7494    1.9616 H       1  UNL1        0.0000
     31 C           0.6693    4.2236    0.7515 C.2     1  UNL1        0.0000
     32 C           1.2350    5.0510   -0.2366 C.2     1  UNL1        0.0000
     33 H           1.0121    4.9990   -1.2954 H       1  UNL1        0.0000
     34 C           2.0460    6.0270    0.3665 C.2     1  UNL1        0.0000
     35 C           2.0207    5.7864    1.7653 C.2     1  UNL1        0.0000
     36 H           2.4188    6.4406    2.5318 H       1  UNL1        0.0000
     37 C           1.1885    4.6618    1.9997 C.3     1  UNL1        0.0000
     38 H           0.8258    4.3555    2.9758 H       1  UNL1        0.0000
     39 C           2.7415    7.1609   -0.3346 C.3     1  UNL1        0.0000
     40 H           2.6537    7.0014   -1.4180 H       1  UNL1        0.0000
     41 C           4.2302    7.2112    0.0247 C.3     1  UNL1        0.0000
     42 H           4.3565    7.4282    1.0850 H       1  UNL1        0.0000
     43 H           4.7278    7.9940   -0.5453 H       1  UNL1        0.0000
     44 H           4.7123    6.2546   -0.2023 H       1  UNL1        0.0000
     45 C           2.0610    8.4894    0.0153 C.3     1  UNL1        0.0000
     46 H           1.0055    8.4588   -0.2484 H       1  UNL1        0.0000
     47 H           2.5287    9.3091   -0.5261 H       1  UNL1        0.0000
     48 H           2.1421    8.6893    1.0820 H       1  UNL1        0.0000
@<TRIPOS>BOND
     1    21    19    1
     2    17    15    1
     3    20    19    1
     4    19    22    1
     5    19     6    1
     6    18    15    1
     7    15    16    1
     8    15     5    1
     9    26    23    1
    10    40    39    1
    11    33    32    1
    12    25    23    1
    13     6     5    1
    14     6     2    2
    15    23    24    1
    16    23     1    1
    17     5     4    2
    18    43    41    1
    19    47    45    1
    20    39    45    1
    21    39    41    1
    22    39    34    1
    23    46    45    1
    24    32    34    1
    25    32    31    2
    26    44    41    1
    27    14    11    1
    28     2     1    1
    29     2     3    1
    30    45    48    1
    31    41    42    1
    32     4    11    1
    33     4     3    1
    34    34    35    2
    35     1    31    1
    36     1    27    1
    37    11    13    1
    38    11    12    1
    39    31    37    1
    40     3     7    1
    41    29    27    1
    42    35    37    1
    43    35    36    1
    44    27    30    1
    45    27    28    1
    46    37    38    1
    47     7     8    1
    48     7     9    1
    49     7    10    1
