@<TRIPOS>MOLECULE
1,3,5,7,9,11,13
 14 14 0 0 0
SMALL
GASTEIGER

@<TRIPOS>ATOM
      1 C           2.8045    4.4511    4.6048 C.2     1  UNL1       -0.0763
      2 H           3.0627    4.4559    3.5512 H       1  UNL1        0.0578
      3 C           3.9211    4.2439    5.4975 C.3     1  UNL1        0.0054
      4 H           4.8883    4.1323    5.0131 H       1  UNL1        0.0394
      5 C           3.9308    4.2791    6.9026 C.2     1  UNL1       -0.0763
      6 H           4.9090    4.1849    7.3741 H       1  UNL1        0.0578
      7 C           2.8333    4.5065    7.8008 C.2     1  UNL1       -0.0651
      8 H           3.0933    4.5852    8.8553 H       1  UNL1        0.0615
      9 C           1.4760    4.7486    7.4919 C.2     1  UNL1       -0.0620
     10 H           0.8397    4.9833    8.3469 H       1  UNL1        0.0617
     11 C           0.8475    4.8374    6.2157 C.2     1  UNL1       -0.0620
     12 H          -0.1639    5.2405    6.2218 H       1  UNL1        0.0617
     13 C           1.4681    4.7422    4.9227 C.2     1  UNL1       -0.0651
     14 H           0.8188    4.9724    4.0786 H       1  UNL1        0.0615
@<TRIPOS>BOND
     1     2     1    1
     2    14    13    1
     3     1    13    2
     4     1     3    1
     5    13    11    1
     6     4     3    1
     7     3     5    1
     8    11    12    1
     9    11     9    2
    10     5     6    1
    11     5     7    2
    12     9     7    1
    13     9    10    1
    14     7     8    1
