@<TRIPOS>MOLECULE
1,3,5,7,9,11,13
 14 14 0 0 0
SMALL
GASTEIGER

@<TRIPOS>ATOM
      1 C           5.4806    4.9283   20.6700 C.2     1  UNL1       -0.0763
      2 H           6.0837    5.8296   20.6783 H       1  UNL1        0.0578
      3 C           5.8750    3.9372   19.6905 C.3     1  UNL1        0.0054
      4 H           6.7053    4.2289   19.0506 H       1  UNL1        0.0394
      5 C           5.3663    2.6455   19.5084 C.2     1  UNL1       -0.0763
      6 H           5.8462    2.0365   18.7435 H       1  UNL1        0.0578
      7 C           4.3221    1.9803   20.2599 C.2     1  UNL1       -0.0651
      8 H           4.1711    0.9310   20.0137 H       1  UNL1        0.0615
      9 C           3.5855    2.4558   21.3548 C.2     1  UNL1       -0.0620
     10 H           2.9242    1.7293   21.8296 H       1  UNL1        0.0617
     11 C           3.6385    3.7398   21.9888 C.2     1  UNL1       -0.0620
     12 H           3.1151    3.8031   22.9406 H       1  UNL1        0.0617
     13 C           4.5351    4.8136   21.7030 C.2     1  UNL1       -0.0651
     14 H           4.4935    5.6545   22.3959 H       1  UNL1        0.0615
@<TRIPOS>BOND
     1     6     5    1
     2     4     3    1
     3     5     3    1
     4     5     7    2
     5     3     1    1
     6     8     7    1
     7     7     9    1
     8     1     2    1
     9     1    13    2
    10     9    10    1
    11     9    11    2
    12    13    11    1
    13    13    14    1
    14    11    12    1
