@<TRIPOS>MOLECULE
1,3,5,7,9,11,13
 14 14 0 0 0
SMALL
GASTEIGER

@<TRIPOS>ATOM
      1 C           5.4177    4.2947   21.6602 C.2     1  UNL1       -0.0763
      2 H           6.0342    5.1822   21.7543 H       1  UNL1        0.0578
      3 C           5.8027    3.3914   20.5972 C.3     1  UNL1        0.0054
      4 H           6.6407    3.7264   19.9894 H       1  UNL1        0.0394
      5 C           5.2759    2.1284   20.2962 C.2     1  UNL1       -0.0763
      6 H           5.7519    1.5837   19.4819 H       1  UNL1        0.0578
      7 C           4.2171    1.4149   20.9786 C.2     1  UNL1       -0.0651
      8 H           4.0530    0.3939   20.6388 H       1  UNL1        0.0615
      9 C           3.4757    1.8027   22.1049 C.2     1  UNL1       -0.0620
     10 H           2.7993    1.0474   22.5083 H       1  UNL1        0.0617
     11 C           3.5434    3.0242   22.8522 C.2     1  UNL1       -0.0620
     12 H           3.0093    3.0115   23.8001 H       1  UNL1        0.0617
     13 C           4.4610    4.1030   22.6723 C.2     1  UNL1       -0.0651
     14 H           4.4275    4.8784   23.4382 H       1  UNL1        0.0615
@<TRIPOS>BOND
     1     6     5    1
     2     4     3    1
     3     5     3    1
     4     5     7    2
     5     3     1    1
     6     8     7    1
     7     7     9    1
     8     1     2    1
     9     1    13    2
    10     9    10    1
    11     9    11    2
    12    13    11    1
    13    13    14    1
    14    11    12    1
