@<TRIPOS>MOLECULE
1,3,5,7,9,11,13
 14 14 0 0 0
SMALL
GASTEIGER

@<TRIPOS>ATOM
      1 C           2.3158    3.3588    4.3185 C.2     1  UNL1       -0.0763
      2 H           2.0842    2.3266    4.0787 H       1  UNL1        0.0578
      3 C           1.9844    4.3076    3.2803 C.3     1  UNL1        0.0054
      4 H           1.5666    3.8732    2.3755 H       1  UNL1        0.0394
      5 C           2.0326    5.7109    3.3386 C.2     1  UNL1       -0.0763
      6 H           1.6339    6.2422    2.4745 H       1  UNL1        0.0578
      7 C           2.4524    6.5442    4.4347 C.2     1  UNL1       -0.0651
      8 H           2.2985    7.6138    4.3000 H       1  UNL1        0.0615
      9 C           2.9725    6.1627    5.6864 C.2     1  UNL1       -0.0620
     10 H           3.1617    6.9816    6.3831 H       1  UNL1        0.0617
     11 C           3.1890    4.8499    6.2113 C.2     1  UNL1       -0.0620
     12 H           3.3903    4.8090    7.2807 H       1  UNL1        0.0617
     13 C           2.8197    3.6006    5.6031 C.2     1  UNL1       -0.0651
     14 H           2.9156    2.7253    6.2452 H       1  UNL1        0.0615
@<TRIPOS>BOND
     1     4     3    1
     2     6     5    1
     3     3     5    1
     4     3     1    1
     5     5     7    2
     6     2     1    1
     7     8     7    1
     8     1    13    2
     9     7     9    1
    10    13    11    1
    11    13    14    1
    12     9    11    2
    13     9    10    1
    14    11    12    1
