@<TRIPOS>MOLECULE
3,4,5,8,9,10,11
 71 74 0 0 0
SMALL
GASTEIGER

@<TRIPOS>ATOM
      1 SI         -2.8710    0.8458    2.0552 Si      1  UNL1        0.0000
      2 SI          0.9441    1.4553    7.7353 Si      1  UNL1        0.0000
      3 C          -2.8154    2.2035    4.5792 C.3     1  UNL1        0.0000
      4 C          -2.1588    3.6004    4.4086 C.3     1  UNL1        0.0000
      5 C          -1.7221    4.2907    5.6000 C.2     1  UNL1        0.0000
      6 C          -1.4552    3.6515    6.7648 C.2     1  UNL1        0.0000
      7 C          -1.6781    2.1597    6.8539 C.3     1  UNL1        0.0000
      8 C          -0.3746    1.4405    6.3915 C.3     1  UNL1        0.0000
      9 C          -0.4274    0.2777    5.4834 C.2     1  UNL1        0.0000
     10 C          -1.1220    0.2111    4.2673 C.2     1  UNL1        0.0000
     11 C          -2.0053    1.2108    3.6836 C.3     1  UNL1        0.0000
     12 C          -2.9708    1.8245    6.0662 C.3     1  UNL1        0.0000
     13 C          -4.1254    2.6751    6.6379 C.3     1  UNL1        0.0000
     14 C          -3.4021    0.3647    6.2646 C.3     1  UNL1        0.0000
     15 C          -4.0721   -0.6536    2.0873 C.3     1  UNL1        0.0000
     16 H          -4.7182   -0.6442    1.2147 H       1  UNL1        0.0000
     17 H          -4.7103   -0.6404    2.9659 H       1  UNL1        0.0000
     18 H          -3.5341   -1.5954    2.0885 H       1  UNL1        0.0000
     19 C          -1.7434    0.5923    0.5206 C.3     1  UNL1        0.0000
     20 H          -2.2536    0.9337   -0.3745 H       1  UNL1        0.0000
     21 H          -1.5178   -0.4587    0.3825 H       1  UNL1        0.0000
     22 H          -0.8029    1.1283    0.5830 H       1  UNL1        0.0000
     23 C          -4.0079    2.3224    1.5746 C.3     1  UNL1        0.0000
     24 H          -3.5246    3.2903    1.6546 H       1  UNL1        0.0000
     25 H          -4.9025    2.3517    2.1877 H       1  UNL1        0.0000
     26 H          -4.3355    2.2110    0.5461 H       1  UNL1        0.0000
     27 C          -0.9563   -1.0602    3.5021 C.ar    1  UNL1        0.0000
     28 C          -0.0558   -1.1673    2.4484 C.ar    1  UNL1        0.0000
     29 C           0.1184   -2.3659    1.7805 C.ar    1  UNL1        0.0000
     30 C          -0.6045   -3.4835    2.1591 C.ar    1  UNL1        0.0000
     31 C          -1.5021   -3.3918    3.2089 C.ar    1  UNL1        0.0000
     32 C          -1.6769   -2.1919    3.8729 C.ar    1  UNL1        0.0000
     33 H          -2.3764   -2.1326    4.6930 H       1  UNL1        0.0000
     34 C           0.3152   -0.9438    5.8857 C.ar    1  UNL1        0.0000
     35 C           1.3932   -1.4552    5.1646 C.ar    1  UNL1        0.0000
     36 C           2.0192   -2.6232    5.5547 C.ar    1  UNL1        0.0000
     37 C           1.5805   -3.3113    6.6733 C.ar    1  UNL1        0.0000
     38 C           0.5115   -2.8158    7.4010 C.ar    1  UNL1        0.0000
     39 C          -0.1115   -1.6460    7.0119 C.ar    1  UNL1        0.0000
     40 C           0.4456    0.6644    9.4191 C.3     1  UNL1        0.0000
     41 C           2.6049    0.6163    7.2631 C.3     1  UNL1        0.0000
     42 C           1.3868    3.2645    8.2364 C.3     1  UNL1        0.0000
     43 H          -3.8352    2.2486    4.1794 H       1  UNL1        0.0000
     44 H          -2.6488    4.2310    3.6627 H       1  UNL1        0.0000
     45 H          -1.6085    5.3755    5.5469 H       1  UNL1        0.0000
     46 H          -1.1683    4.1922    7.6543 H       1  UNL1        0.0000
     47 H          -1.8744    1.8970    7.9034 H       1  UNL1        0.0000
     48 H          -5.0742    2.3279    6.2329 H       1  UNL1        0.0000
     49 H          -4.0121    3.7259    6.3900 H       1  UNL1        0.0000
     50 H          -4.1642    2.5833    7.7216 H       1  UNL1        0.0000
     51 H          -3.7857    0.2350    7.2757 H       1  UNL1        0.0000
     52 H          -2.5858   -0.3324    6.1223 H       1  UNL1        0.0000
     53 H          -4.1964    0.1143    5.5638 H       1  UNL1        0.0000
     54 H           0.5241   -0.3007    2.1607 H       1  UNL1        0.0000
     55 H           0.8267   -2.4314    0.9667 H       1  UNL1        0.0000
     56 H          -0.4648   -4.4216    1.6426 H       1  UNL1        0.0000
     57 H          -2.0667   -4.2608    3.5142 H       1  UNL1        0.0000
     58 H           1.7503   -0.9294    4.2897 H       1  UNL1        0.0000
     59 H           2.8558   -3.0002    4.9837 H       1  UNL1        0.0000
     60 H           2.0679   -4.2267    6.9748 H       1  UNL1        0.0000
     61 H           0.1588   -3.3491    8.2725 H       1  UNL1        0.0000
     62 H          -0.9520   -1.2711    7.5769 H       1  UNL1        0.0000
     63 H          -0.5701    0.9233    9.7042 H       1  UNL1        0.0000
     64 H           1.1005    1.0164   10.2106 H       1  UNL1        0.0000
     65 H           0.5153   -0.4177    9.3953 H       1  UNL1        0.0000
     66 H           3.4350    1.1251    7.7429 H       1  UNL1        0.0000
     67 H           2.6175   -0.4128    7.6030 H       1  UNL1        0.0000
     68 H           2.7952    0.6020    6.1959 H       1  UNL1        0.0000
     69 H           2.3917    3.3064    8.6453 H       1  UNL1        0.0000
     70 H           1.3344    3.9696    7.4129 H       1  UNL1        0.0000
     71 H           0.7167    3.6181    9.0126 H       1  UNL1        0.0000
@<TRIPOS>BOND
     1    20    19    1
     2    21    19    1
     3    19    22    1
     4    19     1    1
     5    26    23    1
     6    55    29    1
     7    16    15    1
     8    23    24    1
     9    23     1    1
    10    23    25    1
    11    56    30    1
    12    29    30   ar
    13    29    28   ar
    14     1    15    1
    15     1    11    1
    16    15    18    1
    17    15    17    1
    18    30    31   ar
    19    54    28    1
    20    28    27   ar
    21    31    57    1
    22    31    32   ar
    23    27    32   ar
    24    27    10    1
    25    44     4    1
    26    11    10    1
    27    11     3    1
    28    32    33    1
    29    43     3    1
    30    10     9    2
    31    58    35    1
    32     4     3    1
    33     4     5    1
    34     3    12    1
    35    59    36    1
    36    35    36   ar
    37    35    34   ar
    38     9    34    1
    39     9     8    1
    40    45     5    1
    41    36    37   ar
    42    53    14    1
    43     5     6    2
    44    34    39   ar
    45    12    14    1
    46    12    13    1
    47    12     7    1
    48    52    14    1
    49    68    41    1
    50    48    13    1
    51    14    51    1
    52    49    13    1
    53     8     7    1
    54     8     2    1
    55    13    50    1
    56    37    60    1
    57    37    38   ar
    58     6     7    1
    59     6    46    1
    60     7    47    1
    61    39    38   ar
    62    39    62    1
    63    41    67    1
    64    41     2    1
    65    41    66    1
    66    38    61    1
    67    70    42    1
    68     2    42    1
    69     2    40    1
    70    42    69    1
    71    42    71    1
    72    65    40    1
    73    40    63    1
    74    40    64    1
