@<TRIPOS>MOLECULE
2,3,23,24,26,28,30
 39 42 0 0 0
SMALL
GASTEIGER

@<TRIPOS>ATOM
      1 C          13.5373    7.2222    3.1528 C.3     1  UNL1       -0.0162
      2 C          13.5428    6.5390    4.5313 C.3     1  UNL1        0.0237
      3 C          14.7348    6.2758    5.3006 C.3     1  UNL1        0.0252
      4 C          14.3590    5.5902    6.5219 C.3     1  UNL1        0.0389
      5 C          12.9446    5.4228    6.4988 C.ar    1  UNL1       -0.0316
      6 C          12.4444    5.9914    5.2780 C.ar    1  UNL1       -0.0348
      7 C          16.1273    6.5129    5.1093 C.2     1  UNL1       -0.0749
      8 H          16.5218    6.9425    4.1967 H       1  UNL1        0.0579
      9 C          17.0418    6.0440    6.0305 C.2     1  UNL1       -0.0653
     10 H          18.0966    6.1944    5.8453 H       1  UNL1        0.0615
     11 C          16.6505    5.3574    7.1841 C.2     1  UNL1       -0.0651
     12 H          17.4005    4.9956    7.8707 H       1  UNL1        0.0615
     13 C          15.3113    5.1334    7.4284 C.2     1  UNL1       -0.0715
     14 H          14.9985    4.5894    8.3082 H       1  UNL1        0.0581
     15 C          12.1019    4.8144    7.4278 C.ar    1  UNL1       -0.0574
     16 H          12.5142    4.3970    8.3355 H       1  UNL1        0.0621
     17 C          10.7530    4.7527    7.1736 C.ar    1  UNL1       -0.0615
     18 H          10.0818    4.2873    7.8798 H       1  UNL1        0.0618
     19 C          10.2469    5.2865    5.9856 C.ar    1  UNL1       -0.0615
     20 H           9.1853    5.2201    5.7931 H       1  UNL1        0.0618
     21 C          11.0579    5.8879    5.0520 C.ar    1  UNL1       -0.0577
     22 H          10.5969    6.2634    4.1547 H       1  UNL1        0.0621
     23 C          13.9002    8.6670    3.4758 C.3     1  UNL1       -0.0024
     24 C          15.2043    9.1877    3.6463 C.3     1  UNL1       -0.0088
     25 H          16.1062    8.8094    3.1827 H       1  UNL1        0.0355
     26 C          15.1023   10.4488    4.2704 C.2     1  UNL1       -0.0834
     27 H          15.9105   11.1559    4.3915 H       1  UNL1        0.0572
     28 C          13.7403   10.7093    4.5069 C.2     1  UNL1       -0.0834
     29 H          13.3284   11.6551    4.8282 H       1  UNL1        0.0572
     30 C          12.9947    9.6106    4.0259 C.3     1  UNL1       -0.0088
     31 H          11.9128    9.5795    3.9752 H       1  UNL1        0.0355
     32 C          12.1818    7.1888    2.4341 C.3     1  UNL1       -0.0584
     33 H          11.8647    6.1623    2.2673 H       1  UNL1        0.0235
     34 H          12.2883    7.6756    1.4656 H       1  UNL1        0.0235
     35 H          11.4115    7.7165    2.9863 H       1  UNL1        0.0235
     36 C          14.5290    6.5534    2.1835 C.3     1  UNL1       -0.0584
     37 H          14.1574    5.5657    1.9169 H       1  UNL1        0.0235
     38 H          15.5204    6.4240    2.6007 H       1  UNL1        0.0235
     39 H          14.6118    7.1472    1.2750 H       1  UNL1        0.0235
@<TRIPOS>BOND
     1    39    36    1
     2    34    32    1
     3    37    36    1
     4    36    38    1
     5    36     1    1
     6    33    32    1
     7    32    35    1
     8    32     1    1
     9     1    23    1
    10     1     2    1
    11    25    24    1
    12    23    24    1
    13    23    30    1
    14    24    26    1
    15    31    30    1
    16    30    28    1
    17    22    21    1
    18     8     7    1
    19    26    27    1
    20    26    28    2
    21    28    29    1
    22     2     6    1
    23     2     3    1
    24    21     6   ar
    25    21    19   ar
    26     7     3    1
    27     7     9    2
    28     6     5   ar
    29     3     4    1
    30    20    19    1
    31    10     9    1
    32    19    17   ar
    33     9    11    1
    34     5     4    1
    35     5    15   ar
    36     4    13    1
    37    17    15   ar
    38    17    18    1
    39    11    13    2
    40    11    12    1
    41    15    16    1
    42    13    14    1
