@<TRIPOS>MOLECULE
3,4,11,12,14,16,18
 34 36 0 0 0
SMALL
GASTEIGER

@<TRIPOS>ATOM
      1 SI         -3.4439    3.8500   27.6241 Si      1  UNL1        0.0000
      2 SI         -3.0514    0.7187   26.2717 Si      1  UNL1        0.0000
      3 C          -3.8064    2.2995   28.6412 C.2     1  UNL1        0.0000
      4 C          -3.6445    0.9791   28.0468 C.3     1  UNL1        0.0000
      5 C          -4.1120    0.0483   28.9926 C.2     1  UNL1        0.0000
      6 H          -4.1805   -1.0188   28.8378 H       1  UNL1        0.0000
      7 C          -4.5485    0.7333   30.1271 C.2     1  UNL1        0.0000
      8 H          -4.9709    0.2835   31.0116 H       1  UNL1        0.0000
      9 C          -4.3737    2.1014   29.9126 C.2     1  UNL1        0.0000
     10 H          -4.6836    2.8802   30.5933 H       1  UNL1        0.0000
     11 C          -1.6436    1.9729   26.2906 C.3     1  UNL1        0.0000
     12 C          -0.2608    1.6880   26.2981 C.3     1  UNL1        0.0000
     13 H           0.2014    0.8257   25.8335 H       1  UNL1        0.0000
     14 C           0.4253    2.7835   26.8540 C.2     1  UNL1        0.0000
     15 H           1.5008    2.9108   26.8869 H       1  UNL1        0.0000
     16 C          -0.5274    3.7510   27.2160 C.2     1  UNL1        0.0000
     17 H          -0.3080    4.7488   27.5746 H       1  UNL1        0.0000
     18 C          -1.8127    3.2772   26.8702 C.3     1  UNL1        0.0000
     19 C          -3.0989    5.3930   28.7088 C.3     1  UNL1        0.0000
     20 H          -3.9149    5.5766   29.4000 H       1  UNL1        0.0000
     21 H          -2.9992    6.2771   28.0880 H       1  UNL1        0.0000
     22 H          -2.1836    5.2807   29.2834 H       1  UNL1        0.0000
     23 C          -4.8445    4.3056   26.3959 C.3     1  UNL1        0.0000
     24 H          -5.4247    3.4358   26.1114 H       1  UNL1        0.0000
     25 H          -4.4505    4.7585   25.4920 H       1  UNL1        0.0000
     26 H          -5.5244    5.0182   26.8507 H       1  UNL1        0.0000
     27 C          -4.3441    0.9638   24.8780 C.3     1  UNL1        0.0000
     28 H          -4.4025    1.9975   24.5580 H       1  UNL1        0.0000
     29 H          -5.3313    0.6575   25.2075 H       1  UNL1        0.0000
     30 H          -4.0864    0.3646   24.0111 H       1  UNL1        0.0000
     31 C          -2.3485   -1.0601   26.1746 C.3     1  UNL1        0.0000
     32 H          -3.1474   -1.7941   26.1703 H       1  UNL1        0.0000
     33 H          -1.7126   -1.2537   27.0365 H       1  UNL1        0.0000
     34 H          -1.7670   -1.2132   25.2713 H       1  UNL1        0.0000
@<TRIPOS>BOND
     1    30    27    1
     2    28    27    1
     3    27    29    1
     4    27     2    1
     5    34    31    1
     6    25    23    1
     7    13    12    1
     8    24    23    1
     9    32    31    1
    10    31     2    1
    11    31    33    1
    12     2    11    1
    13     2     4    1
    14    11    12    1
    15    11    18    1
    16    12    14    1
    17    23    26    1
    18    23     1    1
    19    14    15    1
    20    14    16    2
    21    18    16    1
    22    18     1    1
    23    16    17    1
    24     1     3    1
    25     1    19    1
    26     4     3    1
    27     4     5    1
    28    21    19    1
    29     3     9    2
    30    19    22    1
    31    19    20    1
    32     6     5    1
    33     5     7    2
    34     9     7    1
    35     9    10    1
    36     7     8    1
