@<TRIPOS>MOLECULE
1,2,3,4,5,6,7
 14 14 0 0 0
SMALL
GASTEIGER

@<TRIPOS>ATOM
      1 C           0.3506    2.3151   10.4817 C.2     1  UNL1       -0.0800
      2 C           0.0805    2.2129    9.1011 C.2     1  UNL1       -0.0831
      3 C          -0.7946    1.2997    8.4224 C.3     1  UNL1       -0.0093
      4 C          -1.2989    0.0447    8.9309 C.3     1  UNL1       -0.0093
      5 C          -1.1434   -0.4838   10.2422 C.2     1  UNL1       -0.0831
      6 C          -0.7461    0.1848   11.4318 C.2     1  UNL1       -0.0800
      7 C          -0.1308    1.4893   11.5597 C.3     1  UNL1        0.0049
      8 H           0.9809    3.1544   10.7788 H       1  UNL1        0.0575
      9 H           0.5000    3.0053    8.4800 H       1  UNL1        0.0572
     10 H          -0.8963    1.4471    7.3450 H       1  UNL1        0.0355
     11 H          -1.7095   -0.6371    8.1827 H       1  UNL1        0.0355
     12 H          -1.5159   -1.4994   10.3854 H       1  UNL1        0.0572
     13 H          -0.7862   -0.4098   12.3475 H       1  UNL1        0.0575
     14 H           0.2492    1.7315   12.5531 H       1  UNL1        0.0394
@<TRIPOS>BOND
     1    10     3    1
     2    11     4    1
     3     3     4    1
     4     3     2    1
     5     9     2    1
     6     4     5    1
     7     2     1    2
     8     5    12    1
     9     5     6    2
    10     1     8    1
    11     1     7    1
    12     6     7    1
    13     6    13    1
    14     7    14    1
