@<TRIPOS>MOLECULE
3,4
 29 28 0 0 0
SMALL
GASTEIGER

@<TRIPOS>ATOM
      1 SI          2.6144    5.3802    3.8908 Si      1  UNL1        0.0000
      2 SI          2.0231    6.9541    1.1672 Si      1  UNL1        0.0000
      3 O           1.3386    4.9565    4.9420 O.3     1  UNL1        0.0000
      4 C           1.6181    5.5251    2.3171 C.3     1  UNL1        0.0000
      5 H           1.7195    4.5933    1.7492 H       1  UNL1        0.0000
      6 C           3.4362    6.9564    4.6004 C.3     1  UNL1        0.0000
      7 H           4.2149    7.3118    3.9359 H       1  UNL1        0.0000
      8 H           3.8926    6.7809    5.5716 H       1  UNL1        0.0000
      9 H           2.7115    7.7550    4.7132 H       1  UNL1        0.0000
     10 C           3.9461    4.0034    3.9869 C.3     1  UNL1        0.0000
     11 H           3.5221    3.0258    3.7804 H       1  UNL1        0.0000
     12 H           4.4244    3.9577    4.9617 H       1  UNL1        0.0000
     13 H           4.7228    4.1812    3.2517 H       1  UNL1        0.0000
     14 C           1.5715    4.5239    6.2561 C.3     1  UNL1        0.0000
     15 H           2.0971    3.5646    6.2569 H       1  UNL1        0.0000
     16 H           0.6121    4.4044    6.7593 H       1  UNL1        0.0000
     17 H           2.1755    5.2485    6.8098 H       1  UNL1        0.0000
     18 C           0.8482    6.8340   -0.3473 C.3     1  UNL1        0.0000
     19 H           1.0851    5.9665   -0.9551 H       1  UNL1        0.0000
     20 H           0.9273    7.7062   -0.9886 H       1  UNL1        0.0000
     21 H          -0.1906    6.7440   -0.0317 H       1  UNL1        0.0000
     22 C           1.7321    8.6440    2.0235 C.3     1  UNL1        0.0000
     23 H           1.0552    8.5268    2.8651 H       1  UNL1        0.0000
     24 H           1.2963    9.3713    1.3454 H       1  UNL1        0.0000
     25 H           2.6608    9.0631    2.3961 H       1  UNL1        0.0000
     26 C           3.8192    6.9676    0.4933 C.3     1  UNL1        0.0000
     27 H           4.5366    7.0227    1.3058 H       1  UNL1        0.0000
     28 H           4.0003    7.8109   -0.1658 H       1  UNL1        0.0000
     29 H           4.0325    6.0632   -0.0664 H       1  UNL1        0.0000
@<TRIPOS>BOND
     1    20    18    1
     2    19    18    1
     3    18    21    1
     4    18     2    1
     5    28    26    1
     6    29    26    1
     7    26     2    1
     8    26    27    1
     9     2    22    1
    10     2     4    1
    11    24    22    1
    12     5     4    1
    13    22    25    1
    14    22    23    1
    15     4     1    1
    16    13    10    1
    17    11    10    1
    18     1    10    1
    19     1     6    1
    20     1     3    1
    21     7     6    1
    22    10    12    1
    23     6     9    1
    24     6     8    1
    25     3    14    1
    26    14    15    1
    27    14    16    1
    28    14    17    1
