@<TRIPOS>MOLECULE
3,4
 29 28 0 0 0
SMALL
GASTEIGER

@<TRIPOS>ATOM
      1 SI         -1.8121    8.5892    4.2103 Si      1  UNL1        0.0000
      2 SI         -3.6447    7.2499    1.9544 Si      1  UNL1        0.0000
      3 O          -0.5602    7.6962    4.9492 O.3     1  UNL1        0.0000
      4 C          -1.9267    7.6128    2.6215 C.3     1  UNL1        0.0000
      5 H          -1.3651    8.1410    1.8426 H       1  UNL1        0.0000
      6 C          -3.3045    8.5715    5.4087 C.3     1  UNL1        0.0000
      7 H          -4.1571    9.0701    4.9631 H       1  UNL1        0.0000
      8 H          -3.0849    9.0780    6.3456 H       1  UNL1        0.0000
      9 H          -3.6033    7.5557    5.6424 H       1  UNL1        0.0000
     10 C          -1.2518   10.4199    4.0963 C.3     1  UNL1        0.0000
     11 H          -0.2985   10.5124    3.5856 H       1  UNL1        0.0000
     12 H          -1.1501   10.8834    5.0740 H       1  UNL1        0.0000
     13 H          -1.9768   10.9992    3.5357 H       1  UNL1        0.0000
     14 C           0.0685    8.1333    6.1249 C.3     1  UNL1        0.0000
     15 H           0.6191    9.0609    5.9437 H       1  UNL1        0.0000
     16 H           0.7664    7.3638    6.4541 H       1  UNL1        0.0000
     17 H          -0.6613    8.3150    6.9192 H       1  UNL1        0.0000
     18 C          -4.6638    6.1970    3.1897 C.3     1  UNL1        0.0000
     19 H          -4.0006    5.6717    3.8713 H       1  UNL1        0.0000
     20 H          -5.2741    5.4559    2.6828 H       1  UNL1        0.0000
     21 H          -5.3296    6.8166    3.7809 H       1  UNL1        0.0000
     22 C          -4.6949    8.7997    1.5355 C.3     1  UNL1        0.0000
     23 H          -4.8379    9.4190    2.4151 H       1  UNL1        0.0000
     24 H          -5.6759    8.5357    1.1533 H       1  UNL1        0.0000
     25 H          -4.2050    9.4110    0.7850 H       1  UNL1        0.0000
     26 C          -3.4384    6.2467    0.3297 C.3     1  UNL1        0.0000
     27 H          -3.0064    6.8613   -0.4538 H       1  UNL1        0.0000
     28 H          -4.3900    5.8780   -0.0399 H       1  UNL1        0.0000
     29 H          -2.7824    5.3896    0.4781 H       1  UNL1        0.0000
@<TRIPOS>BOND
     1    27    26    1
     2    28    26    1
     3    26    29    1
     4    26     2    1
     5    25    22    1
     6    24    22    1
     7    22     2    1
     8    22    23    1
     9     5     4    1
    10     2     4    1
    11     2    18    1
    12     4     1    1
    13    20    18    1
    14    18    21    1
    15    18    19    1
    16    13    10    1
    17    11    10    1
    18    10     1    1
    19    10    12    1
    20     1     3    1
    21     1     6    1
    22     3    14    1
    23     7     6    1
    24     6     9    1
    25     6     8    1
    26    15    14    1
    27    14    16    1
    28    14    17    1
