@<TRIPOS>MOLECULE
3,4
 29 28 0 0 0
SMALL
GASTEIGER

@<TRIPOS>ATOM
      1 SI         -2.3226    3.1564    4.7999 Si      1  UNL1        0.0000
      2 SI         -0.9825    2.1653    2.0680 Si      1  UNL1        0.0000
      3 O          -1.9602    4.7003    5.4295 O.3     1  UNL1        0.0000
      4 C          -1.9082    3.5004    3.0110 C.3     1  UNL1        0.0000
      5 H          -2.8365    3.7163    2.4700 H       1  UNL1        0.0000
      6 C          -1.2571    1.8893    5.7603 C.3     1  UNL1        0.0000
      7 H          -1.3926    0.8931    5.3560 H       1  UNL1        0.0000
      8 H          -1.5168    1.8499    6.8155 H       1  UNL1        0.0000
      9 H          -0.2031    2.1330    5.6865 H       1  UNL1        0.0000
     10 C          -4.1456    2.7477    5.2335 C.3     1  UNL1        0.0000
     11 H          -4.8201    3.5234    4.8848 H       1  UNL1        0.0000
     12 H          -4.3006    2.6301    6.3027 H       1  UNL1        0.0000
     13 H          -4.4450    1.8207    4.7577 H       1  UNL1        0.0000
     14 C          -2.2857    5.0598    6.7461 C.3     1  UNL1        0.0000
     15 H          -3.3710    5.0873    6.8793 H       1  UNL1        0.0000
     16 H          -1.8770    6.0496    6.9487 H       1  UNL1        0.0000
     17 H          -1.8678    4.3487    7.4646 H       1  UNL1        0.0000
     18 C           0.7301    1.8149    2.8542 C.3     1  UNL1        0.0000
     19 H           1.0488    2.6629    3.4538 H       1  UNL1        0.0000
     20 H           1.4915    1.6351    2.1015 H       1  UNL1        0.0000
     21 H           0.6974    0.9423    3.4981 H       1  UNL1        0.0000
     22 C          -1.8952    0.4827    1.9391 C.3     1  UNL1        0.0000
     23 H          -2.0942    0.0741    2.9245 H       1  UNL1        0.0000
     24 H          -1.3180   -0.2519    1.3864 H       1  UNL1        0.0000
     25 H          -2.8497    0.5945    1.4359 H       1  UNL1        0.0000
     26 C          -0.7087    2.8014    0.2767 C.3     1  UNL1        0.0000
     27 H          -1.6484    2.8570   -0.2636 H       1  UNL1        0.0000
     28 H          -0.0525    2.1464   -0.2877 H       1  UNL1        0.0000
     29 H          -0.2674    3.7974    0.2771 H       1  UNL1        0.0000
@<TRIPOS>BOND
     1    28    26    1
     2    27    26    1
     3    26    29    1
     4    26     2    1
     5    24    22    1
     6    25    22    1
     7    22     2    1
     8    22    23    1
     9     2    18    1
    10     2     4    1
    11    20    18    1
    12     5     4    1
    13    18    19    1
    14    18    21    1
    15     4     1    1
    16    13    10    1
    17     1    10    1
    18     1     3    1
    19     1     6    1
    20    11    10    1
    21    10    12    1
    22     7     6    1
    23     3    14    1
    24     9     6    1
    25     6     8    1
    26    14    15    1
    27    14    16    1
    28    14    17    1
