@<TRIPOS>MOLECULE
2,3
 18 17 0 0 0
SMALL
GASTEIGER

@<TRIPOS>ATOM
      1 SI         -0.1268    1.0912    4.4130 Si      1  UNL1        0.0000
      2 O           3.0848    1.4312    3.7222 O.2     1  UNL1        0.0000
      3 C           2.4968    0.3665    3.6788 C.2     1  UNL1        0.0000
      4 C           1.4242   -0.0432    4.5994 C.3     1  UNL1        0.0000
      5 C          -1.4319    0.4370    5.6399 C.3     1  UNL1        0.0000
      6 C           0.3918    2.8727    4.8576 C.3     1  UNL1        0.0000
      7 C          -0.7941    0.9732    2.6351 C.3     1  UNL1        0.0000
      8 H           1.7916    0.0810    5.6210 H       1  UNL1        0.0000
      9 H           1.1554   -1.0867    4.4493 H       1  UNL1        0.0000
     10 H          -1.0633    0.4291    6.6610 H       1  UNL1        0.0000
     11 H          -2.3188    1.0613    5.6177 H       1  UNL1        0.0000
     12 H          -1.7379   -0.5743    5.3919 H       1  UNL1        0.0000
     13 H           0.3946    3.0285    5.9328 H       1  UNL1        0.0000
     14 H          -0.2804    3.6073    4.4240 H       1  UNL1        0.0000
     15 H           1.3948    3.0840    4.4961 H       1  UNL1        0.0000
     16 H          -1.7692    1.4417    2.5432 H       1  UNL1        0.0000
     17 H          -0.1244    1.4627    1.9346 H       1  UNL1        0.0000
     18 H          -0.8911   -0.0626    2.3233 H       1  UNL1        0.0000
@<TRIPOS>BOND
     1    17     7    1
     2    18     7    1
     3    16     7    1
     4     7     1    1
     5     3     2    2
     6     3     4    1
     7     1     4    1
     8     1     6    1
     9     1     5    1
    10    14     6    1
    11     9     4    1
    12    15     6    1
    13     4     8    1
    14     6    13    1
    15    12     5    1
    16    11     5    1
    17     5    10    1
