@<TRIPOS>MOLECULE
2,3
 56 58 0 0 0
SMALL
GASTEIGER

@<TRIPOS>ATOM
      1 SI          2.7830    6.3498    5.4631 Si      1  UNL1        0.0000
      2 O           1.9899    6.8665    4.1143 O.3     1  UNL1        0.0000
      3 C           1.8743    6.4377    2.7979 C.3     1  UNL1        0.0000
      4 H           2.8771    6.2076    2.3954 H       1  UNL1        0.0000
      5 C           0.9829    5.2256    2.5748 C.3     1  UNL1        0.0000
      6 H           0.0260    5.3923    3.0842 H       1  UNL1        0.0000
      7 C           1.6049    3.9383    3.1233 C.3     1  UNL1        0.0000
      8 H           2.5976    3.7803    2.7042 H       1  UNL1        0.0000
      9 H           0.9824    3.0843    2.8652 H       1  UNL1        0.0000
     10 H           1.6886    3.9811    4.2066 H       1  UNL1        0.0000
     11 C           0.7270    5.0833    1.0750 C.3     1  UNL1        0.0000
     12 H           0.2898    5.9970    0.6800 H       1  UNL1        0.0000
     13 H           0.0446    4.2600    0.8817 H       1  UNL1        0.0000
     14 H           1.6615    4.8865    0.5526 H       1  UNL1        0.0000
     15 C           3.5015    7.9281    6.2318 C.ar    1  UNL1        0.0000
     16 C           2.6564    9.0033    6.4984 C.ar    1  UNL1        0.0000
     17 H           1.6040    8.9196    6.2652 H       1  UNL1        0.0000
     18 C           3.1392   10.1688    7.0648 C.ar    1  UNL1        0.0000
     19 H           2.4606   10.9856    7.2697 H       1  UNL1        0.0000
     20 C           4.4854   10.3007    7.3830 C.ar    1  UNL1        0.0000
     21 C           5.3315    9.2270    7.1291 C.ar    1  UNL1        0.0000
     22 H           6.3810    9.3089    7.3763 H       1  UNL1        0.0000
     23 C           4.8462    8.0606    6.5694 C.ar    1  UNL1        0.0000
     24 H           5.5217    7.2363    6.3870 H       1  UNL1        0.0000
     25 C           5.0217   11.5710    7.9692 C.3     1  UNL1        0.0000
     26 H           5.5174   12.1600    7.1962 H       1  UNL1        0.0000
     27 H           5.7539   11.3582    8.7455 H       1  UNL1        0.0000
     28 H           4.2214   12.1724    8.3933 H       1  UNL1        0.0000
     29 C           4.1677    5.1425    4.9938 C.ar    1  UNL1        0.0000
     30 C           5.1383    5.5050    4.0636 C.ar    1  UNL1        0.0000
     31 H           5.0972    6.4861    3.6104 H       1  UNL1        0.0000
     32 C           6.1566    4.6424    3.7080 C.ar    1  UNL1        0.0000
     33 H           6.8938    4.9503    2.9790 H       1  UNL1        0.0000
     34 C           6.2454    3.3790    4.2795 C.ar    1  UNL1        0.0000
     35 C           5.2840    3.0105    5.2123 C.ar    1  UNL1        0.0000
     36 H           5.3344    2.0318    5.6685 H       1  UNL1        0.0000
     37 C           4.2641    3.8755    5.5604 C.ar    1  UNL1        0.0000
     38 H           3.5240    3.5607    6.2812 H       1  UNL1        0.0000
     39 C           7.3633    2.4516    3.9156 C.3     1  UNL1        0.0000
     40 H           7.6531    2.5815    2.8752 H       1  UNL1        0.0000
     41 H           7.0769    1.4152    4.0772 H       1  UNL1        0.0000
     42 H           8.2360    2.6614    4.5353 H       1  UNL1        0.0000
     43 C           1.4617    5.6269    6.6064 C.ar    1  UNL1        0.0000
     44 C           1.7968    5.0801    7.8413 C.ar    1  UNL1        0.0000
     45 H           2.8351    5.0493    8.1406 H       1  UNL1        0.0000
     46 C           0.8260    4.5876    8.6930 C.ar    1  UNL1        0.0000
     47 H           1.1138    4.1641    9.6454 H       1  UNL1        0.0000
     48 C          -0.5170    4.6371    8.3427 C.ar    1  UNL1        0.0000
     49 C          -0.8602    5.1999    7.1184 C.ar    1  UNL1        0.0000
     50 H          -1.9009    5.2612    6.8341 H       1  UNL1        0.0000
     51 C           0.1110    5.6863    6.2666 C.ar    1  UNL1        0.0000
     52 H          -0.1791    6.1326    5.3237 H       1  UNL1        0.0000
     53 C          -1.5782    4.0972    9.2514 C.3     1  UNL1        0.0000
     54 H          -2.3926    4.8119    9.3541 H       1  UNL1        0.0000
     55 H          -1.1752    3.8780   10.2370 H       1  UNL1        0.0000
     56 H          -1.9935    3.1782    8.8372 H       1  UNL1        0.0000
@<TRIPOS>BOND
     1    14    11    1
     2    12    11    1
     3    13    11    1
     4    11     5    1
     5     4     3    1
     6     5     3    1
     7     5     6    1
     8     5     7    1
     9     8     7    1
    10     3     2    1
    11     9     7    1
    12    40    39    1
    13    33    32    1
    14     7    10    1
    15    31    30    1
    16    32    30   ar
    17    32    34   ar
    18    39    41    1
    19    39    34    1
    20    39    42    1
    21    30    29   ar
    22     2     1    1
    23    34    35   ar
    24    29     1    1
    25    29    37   ar
    26    35    37   ar
    27    35    36    1
    28    52    51    1
    29     1    15    1
    30     1    43    1
    31    37    38    1
    32    15    16   ar
    33    15    23   ar
    34    17    16    1
    35    51    43   ar
    36    51    49   ar
    37    24    23    1
    38    16    18   ar
    39    23    21   ar
    40    43    44   ar
    41    50    49    1
    42    18    19    1
    43    18    20   ar
    44    49    48   ar
    45    21    22    1
    46    21    20   ar
    47    26    25    1
    48    20    25    1
    49    44    45    1
    50    44    46   ar
    51    25    28    1
    52    25    27    1
    53    48    46   ar
    54    48    53    1
    55    46    47    1
    56    56    53    1
    57    53    54    1
    58    53    55    1
