@<TRIPOS>MOLECULE
2,5
 19 18 0 0 0
SMALL
GASTEIGER

@<TRIPOS>ATOM
      1 SI          3.1932    0.6240   -0.4437 Si      1  UNL1        0.0000
      2 O           3.6274    2.4236    1.9832 O.3     1  UNL1        0.0000
      3 C           4.6169    2.6081    1.0268 C.3     1  UNL1        0.0000
      4 C           4.8664    1.3677    0.1666 C.3     1  UNL1        0.0000
      5 C           2.5352   -0.4377    0.9598 C.3     1  UNL1        0.0000
      6 C           1.9848    2.0601   -0.8408 C.3     1  UNL1        0.0000
      7 C           3.5706   -0.2544   -2.1130 C.3     1  UNL1        0.0000
      8 H           4.3167    3.4403    0.3655 H       1  UNL1        0.0000
      9 H           5.5560    2.9194    1.5272 H       1  UNL1        0.0000
     10 H           5.5228    1.6485   -0.6571 H       1  UNL1        0.0000
     11 H           5.4008    0.6255    0.7640 H       1  UNL1        0.0000
     12 H           1.5010   -0.7577    0.7749 H       1  UNL1        0.0000
     13 H           3.1413   -1.3485    1.0560 H       1  UNL1        0.0000
     14 H           1.8720    2.6992    0.0307 H       1  UNL1        0.0000
     15 H           2.3472    2.6699   -1.6631 H       1  UNL1        0.0000
     16 H           1.0032    1.6914   -1.1232 H       1  UNL1        0.0000
     17 H           4.3079   -1.0401   -1.9879 H       1  UNL1        0.0000
     18 H           2.6717   -0.7126   -2.5091 H       1  UNL1        0.0000
     19 H           3.9465    0.4317   -2.8647 H       1  UNL1        0.0000
@<TRIPOS>BOND
     1    19     7    1
     2    18     7    1
     3     7    17    1
     4     7     1    1
     5    15     6    1
     6    16     6    1
     7     6     1    1
     8     6    14    1
     9    10     4    1
    10     1     4    1
    11     1     5    1
    12     4    11    1
    13     4     3    1
    14     8     3    1
    15    12     5    1
    16     5    13    1
    17     3     9    1
    18     3     2    1
