@<TRIPOS>MOLECULE
1,9
 35 35 0 0 0
SMALL
GASTEIGER

@<TRIPOS>ATOM
      1 O          13.3410    1.2288    2.9331 O.3     1  UNL1       -0.2873
      2 C          13.6503   -0.0309    3.2082 C.ar    1  UNL1        0.1863
      3 C          14.8376   -0.5927    2.6818 C.ar    1  UNL1        0.0052
      4 C          15.1431   -1.9061    3.0112 C.ar    1  UNL1       -0.0544
      5 C          14.3262   -2.6527    3.8362 C.ar    1  UNL1       -0.0610
      6 C          13.1563   -2.1059    4.3264 C.ar    1  UNL1       -0.0544
      7 C          12.7880   -0.8046    4.0239 C.ar    1  UNL1        0.0049
      8 C          15.7023    0.1535    1.6645 C.3     1  UNL1       -0.0062
      9 C          15.7452    1.6822    1.8525 C.3     1  UNL1       -0.0430
     10 C          15.1168   -0.1936    0.2850 C.3     1  UNL1       -0.0557
     11 C          17.1623   -0.3470    1.6960 C.3     1  UNL1       -0.0557
     12 C          11.4883   -0.2049    4.5571 C.3     1  UNL1       -0.0090
     13 C          11.8172    0.9589    5.5033 C.3     1  UNL1       -0.0559
     14 C          10.6279    0.2947    3.3861 C.3     1  UNL1       -0.0559
     15 C          10.6455   -1.2190    5.3405 C.3     1  UNL1       -0.0559
     16 H          16.2457    2.0922    0.9565 H       1  UNL1        0.0274
     17 H          16.4244    1.8700    2.7009 H       1  UNL1        0.0274
     18 H          16.0355   -2.3692    2.6229 H       1  UNL1        0.0622
     19 H          14.5944   -3.6683    4.0870 H       1  UNL1        0.0618
     20 H          12.5302   -2.7190    4.9524 H       1  UNL1        0.0622
     21 H          14.0956    0.1718    0.2178 H       1  UNL1        0.0238
     22 H          15.7142    0.2572   -0.5069 H       1  UNL1        0.0238
     23 H          15.1081   -1.2731    0.1387 H       1  UNL1        0.0238
     24 H          17.2611   -1.3538    1.2959 H       1  UNL1        0.0238
     25 H          17.7805    0.3073    1.0819 H       1  UNL1        0.0238
     26 H          17.5550   -0.3341    2.7112 H       1  UNL1        0.0238
     27 H          12.3272    0.5869    6.3904 H       1  UNL1        0.0238
     28 H          12.4646    1.6823    5.0094 H       1  UNL1        0.0238
     29 H          10.9014    1.4574    5.8163 H       1  UNL1        0.0238
     30 H          11.1240    1.1036    2.8530 H       1  UNL1        0.0238
     31 H          10.4391   -0.5190    2.6881 H       1  UNL1        0.0238
     32 H           9.6723    0.6621    3.7561 H       1  UNL1        0.0238
     33 H           9.7297   -0.7358    5.6763 H       1  UNL1        0.0238
     34 H          10.3698   -2.0666    4.7174 H       1  UNL1        0.0238
     35 H          11.1727   -1.5785    6.2209 H       1  UNL1        0.0238
@<TRIPOS>BOND
     1    22    10    1
     2    23    10    1
     3    21    10    1
     4    10     8    1
     5    16     9    1
     6    25    11    1
     7    24    11    1
     8     8    11    1
     9     8     9    1
    10     8     3    1
    11    11    26    1
    12     9    17    1
    13    18     4    1
    14     3     4   ar
    15     3     2   ar
    16    31    14    1
    17    30    14    1
    18     1     2    1
    19     4     5   ar
    20     2     7   ar
    21    14    32    1
    22    14    12    1
    23     5    19    1
    24     5     6   ar
    25     7     6   ar
    26     7    12    1
    27     6    20    1
    28    12    15    1
    29    12    13    1
    30    34    15    1
    31    28    13    1
    32    15    33    1
    33    15    35    1
    34    13    29    1
    35    13    27    1
