@<TRIPOS>MOLECULE
1,2
 12 12 0 0 0
SMALL
GASTEIGER

@<TRIPOS>ATOM
      1 O           5.8237   19.3641    0.1472 O.3     1  UNL1       -0.2879
      2 C           6.9874   19.5484   -0.4283 C.ar    1  UNL1        0.1790
      3 C           7.9586   18.5394   -0.3988 C.ar    1  UNL1       -0.0149
      4 H           7.7257   17.6135    0.1106 H       1  UNL1        0.0656
      5 C           9.1867   18.7509   -0.9890 C.ar    1  UNL1       -0.0581
      6 H           9.9348   17.9712   -0.9540 H       1  UNL1        0.0619
      7 C           9.4670   19.9525   -1.6207 C.ar    1  UNL1       -0.0615
      8 H          10.4314   20.1103   -2.0816 H       1  UNL1        0.0618
      9 C           8.5088   20.9535   -1.6528 C.ar    1  UNL1       -0.0581
     10 H           8.7267   21.8947   -2.1385 H       1  UNL1        0.0619
     11 C           7.2767   20.7627   -1.0641 C.ar    1  UNL1       -0.0149
     12 H           6.5179   21.5345   -1.0697 H       1  UNL1        0.0656
@<TRIPOS>BOND
     1    10     9    1
     2     8     7    1
     3     9     7   ar
     4     9    11   ar
     5     7     5   ar
     6    12    11    1
     7    11     2   ar
     8     5     6    1
     9     5     3   ar
    10     2     3   ar
    11     2     1    1
    12     3     4    1
