@<TRIPOS>MOLECULE
1,2
 31 31 0 0 0
SMALL
GASTEIGER

@<TRIPOS>ATOM
      1 O          -0.8834    2.0897    1.0571 O.2     1  UNL1        0.0000
      2 C          -0.7990    3.1915    0.4062 C.2     1  UNL1        0.0000
      3 C          -1.4783    3.7297   -0.6194 C.2     1  UNL1        0.0000
      4 C          -1.2572    5.1254   -1.0424 C.2     1  UNL1        0.0000
      5 C          -0.0373    5.6145   -1.2590 C.2     1  UNL1        0.0000
      6 C          -2.5066    2.9550   -1.3248 C.ar    1  UNL1        0.0000
      7 C          -2.7451    3.1993   -2.6781 C.ar    1  UNL1        0.0000
      8 C          -3.7045    2.4830   -3.3672 C.ar    1  UNL1        0.0000
      9 C          -4.4405    1.5014   -2.7245 C.ar    1  UNL1        0.0000
     10 C          -4.1993    1.2360   -1.3858 C.ar    1  UNL1        0.0000
     11 C          -3.2426    1.9518   -0.6938 C.ar    1  UNL1        0.0000
     12 SI         -2.8001    6.2487   -1.0798 Si      1  UNL1        0.0000
     13 C          -2.3018    7.9813   -0.4374 C.3     1  UNL1        0.0000
     14 C          -3.5483    6.4882   -2.8214 C.3     1  UNL1        0.0000
     15 C          -4.1186    5.5202    0.0905 C.3     1  UNL1        0.0000
     16 H           0.1190    6.6498   -1.5141 H       1  UNL1        0.0000
     17 H           0.8462    4.9981   -1.2079 H       1  UNL1        0.0000
     18 H          -2.1561    3.9476   -3.1870 H       1  UNL1        0.0000
     19 H          -3.8765    2.6862   -4.4153 H       1  UNL1        0.0000
     20 H          -5.1918    0.9422   -3.2634 H       1  UNL1        0.0000
     21 H          -4.7673    0.4675   -0.8792 H       1  UNL1        0.0000
     22 H          -3.0623    1.7442    0.3515 H       1  UNL1        0.0000
     23 H          -1.8067    7.9353    0.5278 H       1  UNL1        0.0000
     24 H          -3.1771    8.6138   -0.3255 H       1  UNL1        0.0000
     25 H          -1.6292    8.4808   -1.1272 H       1  UNL1        0.0000
     26 H          -4.0967    5.6097   -3.1450 H       1  UNL1        0.0000
     27 H          -4.2373    7.3277   -2.8261 H       1  UNL1        0.0000
     28 H          -2.7800    6.6922   -3.5613 H       1  UNL1        0.0000
     29 H          -3.6977    5.2943    1.0661 H       1  UNL1        0.0000
     30 H          -4.5273    4.5981   -0.3103 H       1  UNL1        0.0000
     31 H          -4.9434    6.2110    0.2378 H       1  UNL1        0.0000
@<TRIPOS>BOND
     1    19     8    1
     2    28    14    1
     3     8     9   ar
     4     8     7   ar
     5    20     9    1
     6    18     7    1
     7    26    14    1
     8    27    14    1
     9    14    12    1
    10     9    10   ar
    11     7     6   ar
    12    16     5    1
    13    10    21    1
    14    10    11   ar
    15     6    11   ar
    16     6     3    1
    17     5    17    1
    18     5     4    2
    19    25    13    1
    20    12     4    1
    21    12    13    1
    22    12    15    1
    23     4     3    1
    24    11    22    1
    25     3     2    2
    26    13    24    1
    27    13    23    1
    28    30    15    1
    29    15    31    1
    30    15    29    1
    31     2     1    1
