@<TRIPOS>MOLECULE
2,6
 29 29 0 0 0
SMALL
GASTEIGER

@<TRIPOS>ATOM
      1 SI          3.2975   14.6683   10.0324 Si      1  UNL1        0.0000
      2 O           1.9020   13.8943    6.3351 O.co2   1  UNL1        0.0000
      3 O           3.9432   13.8825    7.2131 O.co2   1  UNL1        0.0000
      4 C           2.7385   14.0399    7.3270 C.2     1  UNL1        0.0000
      5 C           2.0799   14.3448    8.6163 C.2     1  UNL1        0.0000
      6 C           0.7370   14.3633    8.5660 C.2     1  UNL1        0.0000
      7 C          -0.1036   14.3721    9.7564 C.ar    1  UNL1        0.0000
      8 C           0.0150   13.2932   10.6445 C.ar    1  UNL1        0.0000
      9 H           0.7541   12.5325   10.4378 H       1  UNL1        0.0000
     10 C          -0.7933   13.1916   11.7585 C.ar    1  UNL1        0.0000
     11 H          -0.6840   12.3482   12.4255 H       1  UNL1        0.0000
     12 C          -1.7364   14.1702   12.0292 C.ar    1  UNL1        0.0000
     13 H          -2.3666   14.0945   12.9026 H       1  UNL1        0.0000
     14 C          -1.8569   15.2504   11.1715 C.ar    1  UNL1        0.0000
     15 H          -2.5803   16.0255   11.3817 H       1  UNL1        0.0000
     16 C          -1.0597   15.3493   10.0458 C.ar    1  UNL1        0.0000
     17 H          -1.1660   16.2113    9.4039 H       1  UNL1        0.0000
     18 C           4.4896   16.0480    9.4612 C.3     1  UNL1        0.0000
     19 H           3.9630   16.9800    9.2715 H       1  UNL1        0.0000
     20 H           4.9942   15.7552    8.5471 H       1  UNL1        0.0000
     21 H           5.2477   16.2464   10.2129 H       1  UNL1        0.0000
     22 C           4.2448   13.0587   10.4324 C.3     1  UNL1        0.0000
     23 H           4.7260   12.6781    9.5374 H       1  UNL1        0.0000
     24 H           3.5883   12.2832   10.8180 H       1  UNL1        0.0000
     25 H           5.0157   13.2353   11.1763 H       1  UNL1        0.0000
     26 C           2.4184   15.3040   11.6056 C.3     1  UNL1        0.0000
     27 H           1.6869   16.0732   11.3807 H       1  UNL1        0.0000
     28 H           3.1486   15.7327   12.2840 H       1  UNL1        0.0000
     29 H           1.9030   14.5122   12.1368 H       1  UNL1        0.0000
@<TRIPOS>BOND
     1     2     4   ar
     2     3     4   ar
     3     4     5    1
     4    20    18    1
     5     6     5    2
     6     6     7    1
     7     5     1    1
     8    19    18    1
     9    17    16    1
    10    18     1    1
    11    18    21    1
    12    23    22    1
    13     7    16   ar
    14     7     8   ar
    15     1    22    1
    16     1    26    1
    17    16    14   ar
    18    22    24    1
    19    22    25    1
    20     9     8    1
    21     8    10   ar
    22    14    15    1
    23    14    12   ar
    24    27    26    1
    25    26    29    1
    26    26    28    1
    27    10    12   ar
    28    10    11    1
    29    12    13    1
