@<TRIPOS>MOLECULE
1,7
 12 12 0 0 0
SMALL
GASTEIGER

@<TRIPOS>ATOM
      1 O           8.4832    5.4373    5.8788 O.2     1  UNL1       -0.2880
      2 C           6.2905    2.2762    3.7399 C.2     1  UNL1       -0.0650
      3 C           5.2868    3.0749    4.4020 C.2     1  UNL1       -0.0650
      4 C           5.7623    4.3212    4.5911 C.2     1  UNL1       -0.0697
      5 C           7.1814    4.3741    4.1294 C.3     1  UNL1        0.0618
      6 C           7.3861    3.0311    3.5240 C.2     1  UNL1       -0.0697
      7 C           7.9552    4.4384    5.4631 C.2     1  UNL1        0.2095
      8 H           6.1411    1.2573    3.4284 H       1  UNL1        0.0615
      9 H           4.3009    2.7230    4.6505 H       1  UNL1        0.0615
     10 H           5.2638    5.1563    5.0487 H       1  UNL1        0.0582
     11 H           7.4524    5.2294    3.5123 H       1  UNL1        0.0468
     12 H           8.2996    2.7429    3.0373 H       1  UNL1        0.0582
@<TRIPOS>BOND
     1    12     6    1
     2     8     2    1
     3    11     5    1
     4     6     2    2
     5     6     5    1
     6     2     3    1
     7     5     4    1
     8     5     7    1
     9     3     4    2
    10     3     9    1
    11     4    10    1
    12     7     1    2
