@<TRIPOS>MOLECULE
1,2
 5 4 0 0 0
SMALL
GASTEIGER

@<TRIPOS>ATOM
      1 O          14.8373   11.7849   18.6487 O.3     1  UNL1       -0.2383
      2 C          14.2009   12.8759   18.1706 C.3     1  UNL1        0.0718
      3 H          14.0529   12.7762   17.0838 H       1  UNL1        0.0555
      4 H          14.7757   13.7964   18.3667 H       1  UNL1        0.0555
      5 H          13.2108   12.9569   18.6477 H       1  UNL1        0.0555
@<TRIPOS>BOND
     1     3     2    1
     2     2     4    1
     3     2     5    1
     4     2     1    1
