@<TRIPOS>MOLECULE
2,3
 19 18 0 0 0
SMALL
GASTEIGER

@<TRIPOS>ATOM
      1 SI          2.0809    3.1581   -0.3935 Si      1  UNL1        0.0000
      2 O           5.9516    2.9582    3.0855 O.2     1  UNL1        0.0000
      3 C           5.6840    3.1692    1.8468 C.2     1  UNL1        0.0000
      4 C           4.2652    3.1220    1.4775 C.2     1  UNL1        0.0000
      5 C           3.8844    3.2087    0.1979 C.3     1  UNL1        0.0000
      6 C           2.0996    3.0625   -2.2964 C.3     1  UNL1        0.0000
      7 C           1.2135    4.7524    0.1948 C.3     1  UNL1        0.0000
      8 C           1.2249    1.6234    0.3480 C.3     1  UNL1        0.0000
      9 H           3.5352    3.0140    2.2771 H       1  UNL1        0.0000
     10 H           4.6787    3.3108   -0.5351 H       1  UNL1        0.0000
     11 H           2.5942    3.9250   -2.7330 H       1  UNL1        0.0000
     12 H           2.6177    2.1746   -2.6464 H       1  UNL1        0.0000
     13 H           1.0910    3.0294   -2.6963 H       1  UNL1        0.0000
     14 H           1.2315    4.8338    1.2774 H       1  UNL1        0.0000
     15 H           1.6955    5.6385   -0.2076 H       1  UNL1        0.0000
     16 H           0.1741    4.7727   -0.1192 H       1  UNL1        0.0000
     17 H           1.7308    0.7074    0.0573 H       1  UNL1        0.0000
     18 H           1.2160    1.6615    1.4329 H       1  UNL1        0.0000
     19 H           0.1941    1.5484    0.0151 H       1  UNL1        0.0000
@<TRIPOS>BOND
     1    11     6    1
     2    13     6    1
     3    12     6    1
     4     6     1    1
     5    10     5    1
     6     1     7    1
     7     1     5    1
     8     1     8    1
     9    15     7    1
    10    16     7    1
    11    19     8    1
    12    17     8    1
    13     7    14    1
    14     5     4    1
    15     8    18    1
    16     4     3    2
    17     4     9    1
    18     3     2    1
