@<TRIPOS>MOLECULE
2,3
 18 17 0 0 0
SMALL
GASTEIGER

@<TRIPOS>ATOM
      1 SI          0.1520   -1.0476   -4.4168 Si      1  UNL1        0.0000
      2 O          -2.9451   -1.5686   -3.6855 O.2     1  UNL1        0.0000
      3 C          -2.4686   -0.4373   -3.6732 C.2     1  UNL1        0.0000
      4 C          -1.4353    0.0259   -4.6236 C.3     1  UNL1        0.0000
      5 C           1.5015   -0.2772   -5.5217 C.3     1  UNL1        0.0000
      6 C          -0.2620   -2.8213   -4.9846 C.3     1  UNL1        0.0000
      7 C           0.6976   -1.0349   -2.5949 C.3     1  UNL1        0.0000
      8 H          -1.8070   -0.1299   -5.6389 H       1  UNL1        0.0000
      9 H          -1.2189    1.0831   -4.4893 H       1  UNL1        0.0000
     10 H           1.2001   -0.2399   -6.5638 H       1  UNL1        0.0000
     11 H           2.4138   -0.8610   -5.4660 H       1  UNL1        0.0000
     12 H           1.7402    0.7345   -5.2105 H       1  UNL1        0.0000
     13 H          -0.3270   -2.8890   -6.0670 H       1  UNL1        0.0000
     14 H           0.4907   -3.5327   -4.6577 H       1  UNL1        0.0000
     15 H          -1.2191   -3.1380   -4.5796 H       1  UNL1        0.0000
     16 H          -0.0988   -1.4209   -1.9645 H       1  UNL1        0.0000
     17 H           0.9176   -0.0264   -2.2577 H       1  UNL1        0.0000
     18 H           1.5815   -1.6443   -2.4309 H       1  UNL1        0.0000
@<TRIPOS>BOND
     1    10     5    1
     2    13     6    1
     3     8     4    1
     4     5    11    1
     5     5    12    1
     6     5     1    1
     7     6    14    1
     8     6    15    1
     9     6     1    1
    10     4     9    1
    11     4     1    1
    12     4     3    1
    13     1     7    1
    14     2     3    2
    15     7    18    1
    16     7    17    1
    17     7    16    1
