@<TRIPOS>MOLECULE
2,4
 57 59 0 0 0
SMALL
GASTEIGER

@<TRIPOS>ATOM
      1 SI         14.3639    2.5902    6.7389 Si      1  UNL1        0.0000
      2 O           8.8930    2.5073    6.4127 O.3     1  UNL1        0.0000
      3 O          12.9471    2.8777    7.4928 O.3     1  UNL1        0.0000
      4 C           8.6634    3.7279    8.6404 C.3     1  UNL1        0.0000
      5 H           8.7107    4.7692    8.2971 H       1  UNL1        0.0000
      6 H           8.4062    3.7492    9.7085 H       1  UNL1        0.0000
      7 C          10.0498    3.1071    8.4419 C.3     1  UNL1        0.0000
      8 H          10.1868    2.2582    9.1190 H       1  UNL1        0.0000
      9 C          10.1486    2.6173    6.9653 C.3     1  UNL1        0.0000
     10 H          10.6650    1.6414    6.9113 H       1  UNL1        0.0000
     11 C          11.0396    3.6656    6.2758 C.3     1  UNL1        0.0000
     12 H          10.4424    4.5514    6.0531 H       1  UNL1        0.0000
     13 H          11.5006    3.2951    5.3625 H       1  UNL1        0.0000
     14 C          12.0737    3.9661    7.3556 C.3     1  UNL1        0.0000
     15 H          12.6484    4.8750    7.1451 H       1  UNL1        0.0000
     16 C          11.2204    4.1115    8.6359 C.3     1  UNL1        0.0000
     17 H          10.8292    5.1331    8.6571 H       1  UNL1        0.0000
     18 C          12.0010    3.8592    9.8825 C.2     1  UNL1        0.0000
     19 H          12.4497    2.8780    9.9507 H       1  UNL1        0.0000
     20 C          12.1599    4.7406   10.8531 C.2     1  UNL1        0.0000
     21 H          11.7235    5.7252   10.8028 H       1  UNL1        0.0000
     22 H          12.7286    4.5174   11.7398 H       1  UNL1        0.0000
     23 C          14.7999    0.8187    7.3464 C.3     1  UNL1        0.0000
     24 C          15.3613    0.8983    8.7690 C.3     1  UNL1        0.0000
     25 H          16.2615    1.5080    8.7972 H       1  UNL1        0.0000
     26 H          15.6105   -0.0976    9.1351 H       1  UNL1        0.0000
     27 H          14.6320    1.3389    9.4440 H       1  UNL1        0.0000
     28 C          15.8647    0.2042    6.4389 C.3     1  UNL1        0.0000
     29 H          16.7687    0.8085    6.4488 H       1  UNL1        0.0000
     30 H          15.5130    0.1368    5.4121 H       1  UNL1        0.0000
     31 H          16.1238   -0.7982    6.7790 H       1  UNL1        0.0000
     32 C          13.5706   -0.0906    7.3696 C.3     1  UNL1        0.0000
     33 H          12.7885    0.3480    7.9835 H       1  UNL1        0.0000
     34 H          13.8292   -1.0662    7.7819 H       1  UNL1        0.0000
     35 H          13.1742   -0.2435    6.3692 H       1  UNL1        0.0000
     36 C          15.6967    3.8046    7.3301 C.ar    1  UNL1        0.0000
     37 C          15.4606    4.6243    8.4309 C.ar    1  UNL1        0.0000
     38 H          14.5033    4.5738    8.9296 H       1  UNL1        0.0000
     39 C          16.4287    5.4947    8.8990 C.ar    1  UNL1        0.0000
     40 H          16.2216    6.1216    9.7547 H       1  UNL1        0.0000
     41 C          17.6623    5.5601    8.2741 C.ar    1  UNL1        0.0000
     42 H          18.4213    6.2378    8.6377 H       1  UNL1        0.0000
     43 C          17.9189    4.7500    7.1804 C.ar    1  UNL1        0.0000
     44 H          18.8806    4.7946    6.6891 H       1  UNL1        0.0000
     45 C          16.9454    3.8841    6.7168 C.ar    1  UNL1        0.0000
     46 H          17.1530    3.2583    5.8603 H       1  UNL1        0.0000
     47 C          14.1932    2.7936    4.8533 C.ar    1  UNL1        0.0000
     48 C          14.6619    3.9388    4.2133 C.ar    1  UNL1        0.0000
     49 H          15.1642    4.6997    4.7936 H       1  UNL1        0.0000
     50 C          14.4978    4.1220    2.8517 C.ar    1  UNL1        0.0000
     51 H          14.8729    5.0190    2.3798 H       1  UNL1        0.0000
     52 C          13.8541    3.1587    2.0943 C.ar    1  UNL1        0.0000
     53 H          13.7267    3.2975    1.0305 H       1  UNL1        0.0000
     54 C          13.3715    2.0171    2.7110 C.ar    1  UNL1        0.0000
     55 H          12.8620    1.2622    2.1291 H       1  UNL1        0.0000
     56 C          13.5400    1.8425    4.0728 C.ar    1  UNL1        0.0000
     57 H          13.1493    0.9508    4.5401 H       1  UNL1        0.0000
@<TRIPOS>BOND
     1    53    52    1
     2    52    54   ar
     3    52    50   ar
     4    55    54    1
     5    51    50    1
     6    54    56   ar
     7    50    48   ar
     8    56    57    1
     9    56    47   ar
    10    48    49    1
    11    48    47   ar
    12    47     1    1
    13    13    11    1
    14    30    28    1
    15    46    45    1
    16    12    11    1
    17    11     9    1
    18    11    14    1
    19    35    32    1
    20     2     9    1
    21    28    29    1
    22    28    31    1
    23    28    23    1
    24    44    43    1
    25    45    43   ar
    26    45    36   ar
    27     1    36    1
    28     1    23    1
    29     1     3    1
    30    10     9    1
    31     9     7    1
    32    15    14    1
    33    43    41   ar
    34    36    37   ar
    35    23    32    1
    36    23    24    1
    37    14     3    1
    38    14    16    1
    39    32    34    1
    40    32    33    1
    41    41    42    1
    42    41    39   ar
    43     5     4    1
    44    37    39   ar
    45    37    38    1
    46     7    16    1
    47     7     4    1
    48     7     8    1
    49    16    17    1
    50    16    18    1
    51     4     6    1
    52    24    25    1
    53    24    26    1
    54    24    27    1
    55    39    40    1
    56    18    19    1
    57    18    20    2
    58    21    20    1
    59    20    22    1
