@<TRIPOS>MOLECULE
1,4
 17 17 0 0 0
SMALL
GASTEIGER

@<TRIPOS>ATOM
      1 O           3.1556    6.3150    9.8754 O.3     1  UNL1       -0.2229
      2 C           3.7831    9.2301   13.6114 C.ar    1  UNL1       -0.0585
      3 H           3.3678    9.6754   14.5054 H       1  UNL1        0.0620
      4 C           2.9611    6.4463   11.1962 C.3     1  UNL1        0.1518
      5 C           3.6331    7.5832   11.8475 C.ar    1  UNL1       -0.0129
      6 C           3.1208    8.1810   13.0025 C.ar    1  UNL1       -0.0557
      7 H           2.1881    7.8217   13.4196 H       1  UNL1        0.0621
      8 C           4.8080    8.1128   11.3048 C.ar    1  UNL1       -0.0557
      9 H           5.1871    7.6817   10.3876 H       1  UNL1        0.0621
     10 C           5.4657    9.1557   11.9197 C.ar    1  UNL1       -0.0585
     11 H           6.3798    9.5400   11.4893 H       1  UNL1        0.0620
     12 C           4.9710    9.7261   13.0896 C.ar    1  UNL1       -0.0504
     13 C           5.6853   10.8704   13.7436 C.3     1  UNL1       -0.0397
     14 H           5.4272   11.8077   13.2488 H       1  UNL1        0.0278
     15 H           6.7633   10.7415   13.6730 H       1  UNL1        0.0278
     16 H           5.4079   10.9546   14.7919 H       1  UNL1        0.0278
     17 H           1.8951    6.3537   11.4913 H       1  UNL1        0.0709
@<TRIPOS>BOND
     1     1     4    1
     2     9     8    1
     3     4    17    1
     4     4     5    1
     5     8     5   ar
     6     8    10   ar
     7    11    10    1
     8     5     6   ar
     9    10    12   ar
    10     6     7    1
    11     6     2   ar
    12    12     2   ar
    13    12    13    1
    14    14    13    1
    15     2     3    1
    16    15    13    1
    17    13    16    1
