@<TRIPOS>MOLECULE
2,4
 27 26 0 0 0
SMALL
GASTEIGER

@<TRIPOS>ATOM
      1 SI          3.2730    3.2380    9.6106 Si      1  UNL1        0.0000
      2 O          -0.9585    4.6679    9.5571 O.2     1  UNL1        0.0000
      3 N          -0.8906    5.9191   11.4370 N.pl3   1  UNL1        0.0000
      4 C           1.4769    3.8853    9.6273 C.3     1  UNL1        0.0000
      5 C           1.0638    4.6673   10.6516 C.2     1  UNL1        0.0000
      6 H           1.6884    4.9615   11.4805 H       1  UNL1        0.0000
      7 C          -0.3013    5.1038   10.5484 C.2     1  UNL1        0.0000
      8 C          -2.2533    6.3532   11.2333 C.3     1  UNL1        0.0000
      9 H          -2.2942    7.4402   11.1441 H       1  UNL1        0.0000
     10 H          -2.8803    6.0365   12.0697 H       1  UNL1        0.0000
     11 H          -2.6209    5.9009   10.3151 H       1  UNL1        0.0000
     12 C          -0.1722    6.4683   12.5634 C.3     1  UNL1        0.0000
     13 H           0.2308    5.6731   13.1924 H       1  UNL1        0.0000
     14 H          -0.8617    7.0624   13.1584 H       1  UNL1        0.0000
     15 H           0.6468    7.1102   12.2305 H       1  UNL1        0.0000
     16 C           4.1414    3.5183    7.9386 C.3     1  UNL1        0.0000
     17 H           4.3576    2.5785    7.4398 H       1  UNL1        0.0000
     18 H           5.0850    4.0417    8.0622 H       1  UNL1        0.0000
     19 H           3.5172    4.1104    7.2748 H       1  UNL1        0.0000
     20 C           3.2563    1.3792   10.0723 C.3     1  UNL1        0.0000
     21 H           2.5906    1.1781   10.9061 H       1  UNL1        0.0000
     22 H           4.2506    1.0503   10.3587 H       1  UNL1        0.0000
     23 H           2.9378    0.7637    9.2379 H       1  UNL1        0.0000
     24 C           4.2472    4.1489   10.9896 C.3     1  UNL1        0.0000
     25 H           4.1959    5.2276   10.8790 H       1  UNL1        0.0000
     26 H           5.2951    3.8664   10.9593 H       1  UNL1        0.0000
     27 H           3.8752    3.8970   11.9780 H       1  UNL1        0.0000
@<TRIPOS>BOND
     1    19    16    1
     2    17    16    1
     3    16    18    1
     4    16     1    1
     5    23    20    1
     6     2     7    1
     7     1     4    1
     8     1    20    1
     9     1    24    1
    10     4     5    1
    11    20    22    1
    12    20    21    1
    13    11     8    1
    14     7     5    2
    15     7     3    1
    16     5     6    1
    17    25    24    1
    18    26    24    1
    19    24    27    1
    20     9     8    1
    21     8     3    1
    22     8    10    1
    23     3    12    1
    24    15    12    1
    25    12    14    1
    26    12    13    1
