@<TRIPOS>MOLECULE
2,4
 45 44 0 0 0
SMALL
GASTEIGER

@<TRIPOS>ATOM
      1 SI          2.6158    3.5258    5.6900 Si      1  UNL1        0.0000
      2 O           5.0695    6.2587    3.0995 O.2     1  UNL1        0.0000
      3 N           5.2287    4.8163    1.3647 N.pl3   1  UNL1        0.0000
      4 C           3.5980    4.7310    4.5774 C.3     1  UNL1        0.0000
      5 C           4.0827    4.2039    3.4336 C.2     1  UNL1        0.0000
      6 H           3.9253    3.1843    3.1229 H       1  UNL1        0.0000
      7 C           4.7954    5.1273    2.5931 C.2     1  UNL1        0.0000
      8 C           5.8662    5.8304    0.5562 C.3     1  UNL1        0.0000
      9 H           6.3059    6.5733    1.2177 H       1  UNL1        0.0000
     10 H           5.1401    6.3173   -0.0999 H       1  UNL1        0.0000
     11 H           6.6519    5.3732   -0.0459 H       1  UNL1        0.0000
     12 C           4.7137    3.6508    0.6789 C.3     1  UNL1        0.0000
     13 H           5.0469    2.7364    1.1718 H       1  UNL1        0.0000
     14 H           5.0891    3.6510   -0.3415 H       1  UNL1        0.0000
     15 H           3.6225    3.6753    0.6580 H       1  UNL1        0.0000
     16 C           1.5217    2.4577    4.5052 C.3     1  UNL1        0.0000
     17 H           2.2056    1.8710    3.8816 H       1  UNL1        0.0000
     18 C           3.9565    2.3574    6.4773 C.3     1  UNL1        0.0000
     19 H           3.4435    1.6658    7.1521 H       1  UNL1        0.0000
     20 C           1.6576    4.3587    7.1402 C.3     1  UNL1        0.0000
     21 H           2.3057    5.1390    7.5463 H       1  UNL1        0.0000
     22 C           0.6758    3.3050    3.5577 C.3     1  UNL1        0.0000
     23 H          -0.0672    3.8762    4.1041 H       1  UNL1        0.0000
     24 H           0.1570    2.6672    2.8417 H       1  UNL1        0.0000
     25 H           1.2901    4.0127    3.0086 H       1  UNL1        0.0000
     26 C           0.6361    1.4575    5.2484 C.3     1  UNL1        0.0000
     27 H           1.2254    0.8355    5.9181 H       1  UNL1        0.0000
     28 H           0.1232    0.8069    4.5406 H       1  UNL1        0.0000
     29 H          -0.1205    1.9745    5.8318 H       1  UNL1        0.0000
     30 C           4.7077    1.5118    5.4530 C.3     1  UNL1        0.0000
     31 H           4.0251    0.9006    4.8692 H       1  UNL1        0.0000
     32 H           5.4091    0.8462    5.9555 H       1  UNL1        0.0000
     33 H           5.2728    2.1506    4.7790 H       1  UNL1        0.0000
     34 C           4.9690    3.1489    7.3016 C.3     1  UNL1        0.0000
     35 H           5.4949    3.8564    6.6646 H       1  UNL1        0.0000
     36 H           5.7027    2.4808    7.7519 H       1  UNL1        0.0000
     37 H           4.4780    3.6974    8.1007 H       1  UNL1        0.0000
     38 C           0.3663    5.0357    6.6828 C.3     1  UNL1        0.0000
     39 H           0.5420    5.6691    5.8185 H       1  UNL1        0.0000
     40 H          -0.0495    5.6442    7.4864 H       1  UNL1        0.0000
     41 H          -0.3791    4.2907    6.4161 H       1  UNL1        0.0000
     42 C           1.3491    3.3999    8.2923 C.3     1  UNL1        0.0000
     43 H           0.7229    2.5770    7.9600 H       1  UNL1        0.0000
     44 H           0.8173    3.9281    9.0833 H       1  UNL1        0.0000
     45 H           2.2584    2.9847    8.7172 H       1  UNL1        0.0000
@<TRIPOS>BOND
     1    14    12    1
     2    10     8    1
     3    11     8    1
     4     8     9    1
     5     8     3    1
     6    15    12    1
     7    12    13    1
     8    12     3    1
     9     3     7    1
    10     7     2    1
    11     7     5    2
    12    24    22    1
    13    25    22    1
    14     6     5    1
    15     5     4    1
    16    22    23    1
    17    22    16    1
    18    17    16    1
    19    16    26    1
    20    16     1    1
    21    28    26    1
    22     4     1    1
    23    33    30    1
    24    31    30    1
    25    26    29    1
    26    26    27    1
    27    30    32    1
    28    30    18    1
    29     1    18    1
    30     1    20    1
    31    39    38    1
    32    41    38    1
    33    18    19    1
    34    18    34    1
    35    35    34    1
    36    38    20    1
    37    38    40    1
    38    20    21    1
    39    20    42    1
    40    34    36    1
    41    34    37    1
    42    43    42    1
    43    42    45    1
    44    42    44    1
