@<TRIPOS>MOLECULE
2,4
 51 54 0 0 0
SMALL
GASTEIGER

@<TRIPOS>ATOM
      1 SI         17.7161   -2.1583   23.5261 Si      1  UNL1        0.0000
      2 O          17.5062   -2.2415   21.8559 O.3     1  UNL1        0.0000
      3 C          15.8954   -2.1862   24.0400 C.ar    1  UNL1        0.0000
      4 C          14.8916   -2.6208   23.1741 C.ar    1  UNL1        0.0000
      5 C          13.5795   -2.6738   23.6227 C.ar    1  UNL1        0.0000
      6 C          13.2556   -2.3066   24.9202 C.ar    1  UNL1        0.0000
      7 C          14.2474   -1.8732   25.7823 C.ar    1  UNL1        0.0000
      8 C          15.5552   -1.8179   25.3409 C.ar    1  UNL1        0.0000
      9 C          18.5774   -3.6974   24.2201 C.ar    1  UNL1        0.0000
     10 C          17.8751   -4.5454   25.0762 C.ar    1  UNL1        0.0000
     11 C          18.4760   -5.6608   25.6317 C.ar    1  UNL1        0.0000
     12 C          19.7997   -5.9512   25.3456 C.ar    1  UNL1        0.0000
     13 C          20.5171   -5.1147   24.5072 C.ar    1  UNL1        0.0000
     14 C          19.9121   -3.9995   23.9555 C.ar    1  UNL1        0.0000
     15 C          18.5686   -0.5665   24.0845 C.ar    1  UNL1        0.0000
     16 C          19.7866   -0.6017   24.7584 C.ar    1  UNL1        0.0000
     17 C          20.4142    0.5646   25.1571 C.ar    1  UNL1        0.0000
     18 C          19.8317    1.7930   24.8941 C.ar    1  UNL1        0.0000
     19 C          18.6091    1.8467   24.2453 C.ar    1  UNL1        0.0000
     20 C          17.9851    0.6776   23.8505 C.ar    1  UNL1        0.0000
     21 C          18.3094   -1.6122   20.8625 C.3     1  UNL1        0.0000
     22 C          19.7872   -1.7286   21.1003 C.ar    1  UNL1        0.0000
     23 C          20.4673   -2.8992   20.7910 C.ar    1  UNL1        0.0000
     24 C          21.8276   -3.0100   21.0162 C.ar    1  UNL1        0.0000
     25 C          22.5455   -1.9523   21.5596 C.ar    1  UNL1        0.0000
     26 C          21.8643   -0.7749   21.8530 C.ar    1  UNL1        0.0000
     27 C          20.5077   -0.6601   21.6217 C.ar    1  UNL1        0.0000
     28 C          24.0151   -2.0587   21.8127 C.3     1  UNL1        0.0000
     29 H          12.7912   -3.0107   22.9650 H       1  UNL1        0.0000
     30 H          12.2296   -2.3591   25.2527 H       1  UNL1        0.0000
     31 H          14.0022   -1.5828   26.7922 H       1  UNL1        0.0000
     32 H          16.3368   -1.4865   26.0086 H       1  UNL1        0.0000
     33 H          16.8442   -4.3213   25.3087 H       1  UNL1        0.0000
     34 H          17.9120   -6.3038   26.2916 H       1  UNL1        0.0000
     35 H          20.2704   -6.8212   25.7777 H       1  UNL1        0.0000
     36 H          21.5523   -5.3281   24.2858 H       1  UNL1        0.0000
     37 H          20.4857   -3.3552   23.3066 H       1  UNL1        0.0000
     38 H          20.2467   -1.5538   24.9748 H       1  UNL1        0.0000
     39 H          21.3594    0.5155   25.6766 H       1  UNL1        0.0000
     40 H          20.3223    2.7041   25.2012 H       1  UNL1        0.0000
     41 H          18.1411    2.8006   24.0510 H       1  UNL1        0.0000
     42 H          17.0225    0.7268   23.3622 H       1  UNL1        0.0000
     43 H          18.0501   -2.0826   19.9086 H       1  UNL1        0.0000
     44 H          18.0327   -0.5520   20.8207 H       1  UNL1        0.0000
     45 H          19.9331   -3.7371   20.3667 H       1  UNL1        0.0000
     46 H          22.3351   -3.9303   20.7671 H       1  UNL1        0.0000
     47 H          22.4061    0.0635   22.2642 H       1  UNL1        0.0000
     48 H          20.0056    0.2697   21.8426 H       1  UNL1        0.0000
     49 H          24.3745   -3.0670   21.6259 H       1  UNL1        0.0000
     50 H          24.5574   -1.3730   21.1629 H       1  UNL1        0.0000
     51 H          24.2448   -1.7875   22.8417 H       1  UNL1        0.0000
@<TRIPOS>BOND
     1    43    21    1
     2    45    23    1
     3    46    24    1
     4    23    24   ar
     5    23    22   ar
     6    44    21    1
     7    21    22    1
     8    21     2    1
     9    24    25   ar
    10    22    27   ar
    11    50    28    1
    12    25    28    1
    13    25    26   ar
    14    27    48    1
    15    27    26   ar
    16    49    28    1
    17    28    51    1
    18    26    47    1
    19     2     1    1
    20    29     5    1
    21     4     5   ar
    22     4     3   ar
    23    37    14    1
    24    42    20    1
    25     1     3    1
    26     1    15    1
    27     1     9    1
    28     5     6   ar
    29    20    15   ar
    30    20    19   ar
    31    14     9   ar
    32    14    13   ar
    33     3     8   ar
    34    41    19    1
    35    15    16   ar
    36     9    10   ar
    37    19    18   ar
    38    36    13    1
    39    13    12   ar
    40    16    38    1
    41    16    17   ar
    42    18    17   ar
    43    18    40    1
    44     6    30    1
    45     6     7   ar
    46    10    33    1
    47    10    11   ar
    48    17    39    1
    49     8     7   ar
    50     8    32    1
    51    12    11   ar
    52    12    35    1
    53    11    34    1
    54     7    31    1
