@<TRIPOS>MOLECULE
1,2
 15 15 0 0 0
SMALL
GASTEIGER

@<TRIPOS>ATOM
      1 O           7.0203    1.2268    0.8565 O.3     1  UNL1       -0.4945
      2 C           5.8880    2.9414   -0.2464 C.ar    1  UNL1        0.0273
      3 C           6.0235    1.5450   -0.0886 C.ar    1  UNL1        0.1279
      4 C           5.2674    0.6108   -0.7711 C.ar    1  UNL1       -0.0193
      5 H           5.3946   -0.4521   -0.6263 H       1  UNL1        0.0654
      6 C           4.3101    1.0662   -1.6704 C.ar    1  UNL1       -0.0583
      7 H           3.7077    0.3507   -2.2112 H       1  UNL1        0.0619
      8 C           4.1354    2.4202   -1.8678 C.ar    1  UNL1       -0.0610
      9 H           3.3904    2.7703   -2.5690 H       1  UNL1        0.0618
     10 C           4.9142    3.3364   -1.1654 C.ar    1  UNL1       -0.0504
     11 H           4.7498    4.3950   -1.3483 H       1  UNL1        0.0625
     12 C           7.3088   -0.1397    1.0657 C.3     1  UNL1        0.0788
     13 H           6.4419   -0.6741    1.4694 H       1  UNL1        0.0660
     14 H           8.1205   -0.1775    1.7908 H       1  UNL1        0.0660
     15 H           7.6337   -0.6231    0.1384 H       1  UNL1        0.0660
@<TRIPOS>BOND
     1     9     8    1
     2     7     6    1
     3     8     6   ar
     4     8    10   ar
     5     6     4   ar
     6    11    10    1
     7    10     2   ar
     8     4     5    1
     9     4     3   ar
    10     2     3   ar
    11     3     1    1
    12    15    12    1
    13     1    12    1
    14    12    13    1
    15    12    14    1
