@<TRIPOS>MOLECULE
1,2
 15 15 0 0 0
SMALL
GASTEIGER

@<TRIPOS>ATOM
      1 O           8.0780    5.4860    0.0545 O.3     1  UNL1       -0.4945
      2 C           9.4392    3.7511    0.8141 C.ar    1  UNL1        0.0273
      3 C           9.3942    4.9897    0.1363 C.ar    1  UNL1        0.1279
      4 C          10.5027    5.6345   -0.3794 C.ar    1  UNL1       -0.0193
      5 H          10.4319    6.5853   -0.8871 H       1  UNL1        0.0654
      6 C          11.7458    5.0302   -0.2322 C.ar    1  UNL1       -0.0583
      7 H          12.6243    5.5213   -0.6246 H       1  UNL1        0.0619
      8 C          11.8490    3.8116    0.4057 C.ar    1  UNL1       -0.0610
      9 H          12.8159    3.3401    0.5123 H       1  UNL1        0.0618
     10 C          10.7129    3.1889    0.9148 C.ar    1  UNL1       -0.0504
     11 H          10.8365    2.2275    1.4040 H       1  UNL1        0.0625
     12 C           7.8688    6.6817   -0.6679 C.3     1  UNL1        0.0788
     13 H           8.3875    7.5268   -0.2023 H       1  UNL1        0.0660
     14 H           6.7956    6.8670   -0.6497 H       1  UNL1        0.0660
     15 H           8.1979    6.5804   -1.7073 H       1  UNL1        0.0660
@<TRIPOS>BOND
     1    15    12    1
     2     5     4    1
     3    12    14    1
     4    12    13    1
     5    12     1    1
     6     7     6    1
     7     4     6   ar
     8     4     3   ar
     9     6     8   ar
    10     1     3    1
    11     3     2   ar
    12     8     9    1
    13     8    10   ar
    14     2    10   ar
    15    10    11    1
