@<TRIPOS>MOLECULE
1,2
 22 21 0 0 0
SMALL
GASTEIGER

@<TRIPOS>ATOM
      1 O           6.3071    0.1404    2.7868 O.3     1  UNL1       -0.2282
      2 C           8.0909    1.4473    1.5857 C.3     1  UNL1       -0.0270
      3 C           8.3056   -0.0753    1.5167 C.3     1  UNL1       -0.0156
      4 C           7.0616   -0.8053    2.1008 C.3     1  UNL1        0.0994
      5 C           9.4441    2.1524    1.4981 C.3     1  UNL1       -0.0592
      6 C           7.2326    1.8968    0.3962 C.3     1  UNL1       -0.0592
      7 C           7.5020   -1.8878    3.1016 C.3     1  UNL1       -0.0330
      8 C           6.2172   -1.4588    0.9918 C.3     1  UNL1       -0.0330
      9 H           8.4951   -0.4073    0.4897 H       1  UNL1        0.0299
     10 H           9.1788   -0.3341    2.1207 H       1  UNL1        0.0299
     11 H           9.9533    1.9020    0.5629 H       1  UNL1        0.0235
     12 H          10.0865    1.8642    2.3284 H       1  UNL1        0.0235
     13 H           9.3108    3.2329    1.5322 H       1  UNL1        0.0235
     14 H           7.2083    2.9853    0.3235 H       1  UNL1        0.0235
     15 H           6.2018    1.5403    0.4935 H       1  UNL1        0.0235
     16 H           7.6335    1.5133   -0.5468 H       1  UNL1        0.0235
     17 H           8.0187   -1.4087    3.9341 H       1  UNL1        0.0258
     18 H           8.1647   -2.6063    2.6255 H       1  UNL1        0.0258
     19 H           6.6285   -2.4099    3.4882 H       1  UNL1        0.0258
     20 H           5.3325   -1.9184    1.4286 H       1  UNL1        0.0258
     21 H           6.7936   -2.2261    0.4810 H       1  UNL1        0.0258
     22 H           5.8967   -0.7152    0.2660 H       1  UNL1        0.0258
@<TRIPOS>BOND
     1    16     6    1
     2    22     8    1
     3    14     6    1
     4     6    15    1
     5     6     2    1
     6    21     8    1
     7     9     3    1
     8    11     5    1
     9     8    20    1
    10     8     4    1
    11     5    13    1
    12     5     2    1
    13     5    12    1
    14     3     2    1
    15     3     4    1
    16     3    10    1
    17     4     1    1
    18     4     7    1
    19    18     7    1
    20     7    19    1
    21     7    17    1
