@<TRIPOS>MOLECULE
2,16
 72 74 0 0 0
SMALL
GASTEIGER

@<TRIPOS>ATOM
      1 SI          3.9364    2.8922    1.9458 Si      1  UNL1        0.0000
      2 O          -1.5556    4.0340    9.5718 O.3     1  UNL1        0.0000
      3 O          -0.6910    4.9154    4.9985 O.3     1  UNL1        0.0000
      4 O           2.4196    2.5380    2.4589 O.2     1  UNL1        0.0000
      5 N          -0.7384    6.1929    9.5286 N.3     1  UNL1        0.0000
      6 N          -0.1064    4.7397    7.9570 N.3     1  UNL1        0.0000
      7 C          -0.8772    4.9294    9.0795 C.3     1  UNL1        0.0000
      8 C           0.0001    7.0109    8.5816 C.3     1  UNL1        0.0000
      9 C           0.6474    5.9553    7.6408 C.3     1  UNL1        0.0000
     10 C           1.4852    2.0770    6.0655 C.3     1  UNL1        0.0000
     11 C           2.4075    2.1107    4.8452 C.3     1  UNL1        0.0000
     12 C           1.7628    2.7073    3.6327 C.2     1  UNL1        0.0000
     13 C           0.6088    3.3606    3.6668 C.2     1  UNL1        0.0000
     14 C          -0.1701    3.5909    4.9275 C.3     1  UNL1        0.0000
     15 C           0.7326    3.4100    6.1659 C.3     1  UNL1        0.0000
     16 C          -0.1438    3.5206    7.3777 C.3     1  UNL1        0.0000
     17 C          -1.5713    6.7513   10.5588 C.3     1  UNL1        0.0000
     18 C           0.9893    7.9380    9.2768 C.3     1  UNL1        0.0000
     19 C           3.0585    6.3031    7.0183 C.ar    1  UNL1        0.0000
     20 C           4.4119    6.1164    7.2361 C.ar    1  UNL1        0.0000
     21 C           4.8442    5.3784    8.3251 C.ar    1  UNL1        0.0000
     22 C           3.9183    4.8283    9.1956 C.ar    1  UNL1        0.0000
     23 C           2.5644    5.0145    8.9793 C.ar    1  UNL1        0.0000
     24 C           2.1245    5.7533    7.8871 C.ar    1  UNL1        0.0000
     25 C           2.3212    1.8224    7.3168 C.3     1  UNL1        0.0000
     26 C          -1.7969    5.1640    4.1638 C.3     1  UNL1        0.0000
     27 C           3.8608    2.3163    0.1400 C.3     1  UNL1        0.0000
     28 C           5.2979    1.9312    2.8781 C.3     1  UNL1        0.0000
     29 C           4.2442    4.7950    2.1006 C.3     1  UNL1        0.0000
     30 C           3.2425    5.5527    1.2247 C.3     1  UNL1        0.0000
     31 C           4.0528    5.2569    3.5489 C.3     1  UNL1        0.0000
     32 C           5.6607    5.1624    1.6533 C.3     1  UNL1        0.0000
     33 H          -0.7121    7.6252    8.0077 H       1  UNL1        0.0000
     34 H           0.4778    6.2234    6.5937 H       1  UNL1        0.0000
     35 H           0.7528    1.2741    5.9550 H       1  UNL1        0.0000
     36 H           2.7437    1.1022    4.5971 H       1  UNL1        0.0000
     37 H           3.3006    2.7005    5.0765 H       1  UNL1        0.0000
     38 H           0.1970    3.7628    2.7543 H       1  UNL1        0.0000
     39 H          -1.0085    2.8744    4.9869 H       1  UNL1        0.0000
     40 H           1.4800    4.2105    6.1302 H       1  UNL1        0.0000
     41 H          -2.1646    5.9411   10.9793 H       1  UNL1        0.0000
     42 H          -0.9607    7.1975   11.3449 H       1  UNL1        0.0000
     43 H          -2.2390    7.5124   10.1459 H       1  UNL1        0.0000
     44 H           0.4546    8.6931    9.8470 H       1  UNL1        0.0000
     45 H           1.6356    7.3801    9.9489 H       1  UNL1        0.0000
     46 H           1.6071    8.4385    8.5364 H       1  UNL1        0.0000
     47 H           2.7222    6.8703    6.1623 H       1  UNL1        0.0000
     48 H           5.1290    6.5438    6.5518 H       1  UNL1        0.0000
     49 H           5.9000    5.2287    8.4931 H       1  UNL1        0.0000
     50 H           4.2497    4.2477   10.0433 H       1  UNL1        0.0000
     51 H           1.8469    4.5714    9.6556 H       1  UNL1        0.0000
     52 H           1.6830    1.7709    8.1947 H       1  UNL1        0.0000
     53 H           2.8559    0.8805    7.2239 H       1  UNL1        0.0000
     54 H           3.0479    2.6210    7.4594 H       1  UNL1        0.0000
     55 H          -2.1598    6.1565    4.4280 H       1  UNL1        0.0000
     56 H          -1.5218    5.1562    3.1043 H       1  UNL1        0.0000
     57 H          -2.5912    4.4302    4.3297 H       1  UNL1        0.0000
     58 H           3.7674    1.2371    0.0851 H       1  UNL1        0.0000
     59 H           3.0121    2.7437   -0.3825 H       1  UNL1        0.0000
     60 H           4.7607    2.5949   -0.3968 H       1  UNL1        0.0000
     61 H           5.4791    2.3118    3.8789 H       1  UNL1        0.0000
     62 H           5.0250    0.8844    2.9727 H       1  UNL1        0.0000
     63 H           6.2393    1.9708    2.3404 H       1  UNL1        0.0000
     64 H           3.3743    6.6291    1.3367 H       1  UNL1        0.0000
     65 H           3.3798    5.3012    0.1761 H       1  UNL1        0.0000
     66 H           2.2226    5.3023    1.5069 H       1  UNL1        0.0000
     67 H           4.2207    6.3314    3.6272 H       1  UNL1        0.0000
     68 H           3.0406    5.0453    3.8879 H       1  UNL1        0.0000
     69 H           4.7523    4.7582    4.2173 H       1  UNL1        0.0000
     70 H           5.8128    6.2397    1.7154 H       1  UNL1        0.0000
     71 H           6.4036    4.6769    2.2811 H       1  UNL1        0.0000
     72 H           5.8302    4.8551    0.6244 H       1  UNL1        0.0000
@<TRIPOS>BOND
     1    60    27    1
     2    59    27    1
     3    58    27    1
     4    27     1    1
     5    65    30    1
     6    72    32    1
     7    30    64    1
     8    30    66    1
     9    30    29    1
    10    32    70    1
    11    32    29    1
    12    32    71    1
    13     1    29    1
    14     1     4    1
    15     1    28    1
    16    29    31    1
    17    63    28    1
    18     4    12    1
    19    38    13    1
    20    28    62    1
    21    28    61    1
    22    56    26    1
    23    31    67    1
    24    31    68    1
    25    31    69    1
    26    12    13    2
    27    12    11    1
    28    13    14    1
    29    26    57    1
    30    26    55    1
    31    26     3    1
    32    36    11    1
    33    11    37    1
    34    11    10    1
    35    14    39    1
    36    14     3    1
    37    14    15    1
    38    35    10    1
    39    10    15    1
    40    10    25    1
    41    40    15    1
    42    47    19    1
    43    15    16    1
    44    48    20    1
    45    34     9    1
    46    19    20   ar
    47    19    24   ar
    48    53    25    1
    49    20    21   ar
    50    25    54    1
    51    25    52    1
    52    16     6    1
    53     9    24    1
    54     9     6    1
    55     9     8    1
    56    24    23   ar
    57     6     7    1
    58    33     8    1
    59    21    49    1
    60    21    22   ar
    61    46    18    1
    62     8    18    1
    63     8     5    1
    64    23    22   ar
    65    23    51    1
    66     7     5    1
    67     7     2    1
    68    22    50    1
    69    18    44    1
    70    18    45    1
    71     5    17    1
    72    43    17    1
    73    17    41    1
    74    17    42    1
