@<TRIPOS>MOLECULE
1,2
 25 26 0 0 0
SMALL
GASTEIGER

@<TRIPOS>ATOM
      1 O           1.9918    3.6058    6.3589 O.2     1  UNL1       -0.2831
      2 C           3.0466    3.7538    5.6509 C.2     1  UNL1        0.2341
      3 C           4.1806    4.4486    5.8899 C.2     1  UNL1        0.0398
      4 C           4.2753    5.3002    7.0948 C.ar    1  UNL1       -0.0135
      5 C           3.7533    4.8891    8.3186 C.ar    1  UNL1       -0.0539
      6 C           3.8060    5.7210    9.4214 C.ar    1  UNL1       -0.0612
      7 C           4.3781    6.9781    9.3233 C.ar    1  UNL1       -0.0617
      8 C           4.8961    7.3993    8.1094 C.ar    1  UNL1       -0.0612
      9 C           4.8444    6.5710    7.0053 C.ar    1  UNL1       -0.0539
     10 C           5.3372    4.3825    4.9946 C.ar    1  UNL1       -0.0135
     11 C           6.6279    4.5637    5.5028 C.ar    1  UNL1       -0.0539
     12 C           7.7371    4.4643    4.6867 C.ar    1  UNL1       -0.0612
     13 C           7.5942    4.1772    3.3388 C.ar    1  UNL1       -0.0617
     14 C           6.3244    3.9864    2.8202 C.ar    1  UNL1       -0.0612
     15 C           5.2128    4.0859    3.6351 C.ar    1  UNL1       -0.0539
     16 H           3.3079    3.9097    8.3996 H       1  UNL1        0.0624
     17 H           3.4006    5.3849   10.3653 H       1  UNL1        0.0618
     18 H           4.4182    7.6275   10.1858 H       1  UNL1        0.0618
     19 H           5.3373    8.3822    8.0221 H       1  UNL1        0.0618
     20 H           5.2409    6.9096    6.0583 H       1  UNL1        0.0624
     21 H           6.7578    4.7734    6.5546 H       1  UNL1        0.0624
     22 H           8.7232    4.6072    5.1054 H       1  UNL1        0.0618
     23 H           8.4622    4.1013    2.7006 H       1  UNL1        0.0618
     24 H           6.2009    3.7615    1.7696 H       1  UNL1        0.0618
     25 H           4.2286    3.9433    3.2140 H       1  UNL1        0.0624
@<TRIPOS>BOND
     1    24    14    1
     2    23    13    1
     3    14    13   ar
     4    14    15   ar
     5    25    15    1
     6    13    12   ar
     7    15    10   ar
     8    12    22    1
     9    12    11   ar
    10    10    11   ar
    11    10     3    1
    12    11    21    1
    13     2     3    2
    14     2     1    1
    15     3     4    1
    16    20     9    1
    17     9     4   ar
    18     9     8   ar
    19     4     5   ar
    20    19     8    1
    21     8     7   ar
    22     5    16    1
    23     5     6   ar
    24     7     6   ar
    25     7    18    1
    26     6    17    1
