@<TRIPOS>MOLECULE
2,5
 24 23 0 0 0
SMALL
GASTEIGER

@<TRIPOS>ATOM
      1 SI          6.6699   10.6308    7.2318 Si      1  UNL1        0.0000
      2 C           4.1512   10.5356    8.3721 C.3     1  UNL1        0.0000
      3 C           3.5251    9.8819    7.3392 C.2     1  UNL1        0.0000
      4 C           2.1634    9.6638    7.6056 C.2     1  UNL1        0.0000
      5 O           1.6698   10.0554    8.6863 O.2     1  UNL1        0.0000
      6 O           1.4064    9.0355    6.6933 O.2     1  UNL1        0.0000
      7 C           0.0428    8.8562    7.0440 C.3     1  UNL1        0.0000
      8 O           5.4476   10.8369    8.3168 O.3     1  UNL1        0.0000
      9 C           8.1340   11.4307    8.1383 C.3     1  UNL1        0.0000
     10 C           6.3232   11.5372    5.5871 C.3     1  UNL1        0.0000
     11 C           7.0221    8.7848    6.8922 C.3     1  UNL1        0.0000
     12 H           3.9920    9.5610    6.4224 H       1  UNL1        0.0000
     13 H          -0.4201    8.3494    6.2007 H       1  UNL1        0.0000
     14 H          -0.4381    9.8204    7.2216 H       1  UNL1        0.0000
     15 H          -0.0445    8.2504    7.9484 H       1  UNL1        0.0000
     16 H           8.3544   10.9250    9.0728 H       1  UNL1        0.0000
     17 H           7.9437   12.4736    8.3701 H       1  UNL1        0.0000
     18 H           9.0268   11.3884    7.5240 H       1  UNL1        0.0000
     19 H           6.1836   12.6025    5.7482 H       1  UNL1        0.0000
     20 H           5.4310   11.1635    5.0924 H       1  UNL1        0.0000
     21 H           7.1514   11.4200    4.8954 H       1  UNL1        0.0000
     22 H           7.2742    8.2583    7.8085 H       1  UNL1        0.0000
     23 H           7.8585    8.6670    6.2105 H       1  UNL1        0.0000
     24 H           6.1688    8.2779    6.4502 H       1  UNL1        0.0000
@<TRIPOS>BOND
     1    21    10    1
     2    20    10    1
     3    10    19    1
     4    10     1    1
     5    13     7    1
     6    23    11    1
     7    12     3    1
     8    24    11    1
     9     6     7    1
    10     6     4    1
    11    11     1    1
    12    11    22    1
    13     7    14    1
    14     7    15    1
    15     1     9    1
    16     1     8    1
    17     3     4    2
    18     3     2    1
    19    18     9    1
    20     4     5    1
    21     9    17    1
    22     9    16    1
    23     8     2    1
