@<TRIPOS>MOLECULE
2,3
 17 16 0 0 0
SMALL
GASTEIGER

@<TRIPOS>ATOM
      1 SI        -11.1546    1.9957    1.8629 Si      1  UNL1        0.0000
      2 O         -11.3656    1.6343    3.9252 O.3     1  UNL1        0.0000
      3 C          -9.6321    3.0964    2.3027 C.3     1  UNL1        0.0000
      4 C         -12.7737    3.0120    2.2216 C.3     1  UNL1        0.0000
      5 C         -11.2580    2.1226   -0.0872 C.3     1  UNL1        0.0000
      6 C         -10.6546    0.1189    1.9229 C.3     1  UNL1        0.0000
      7 H          -8.7225    2.6800    1.8559 H       1  UNL1        0.0000
      8 H          -9.7570    4.0940    1.8744 H       1  UNL1        0.0000
      9 H         -13.6098    2.3508    2.4217 H       1  UNL1        0.0000
     10 H         -13.0560    3.6573    1.3954 H       1  UNL1        0.0000
     11 H         -12.6184    3.6195    3.1168 H       1  UNL1        0.0000
     12 H         -12.0908    1.5401   -0.4661 H       1  UNL1        0.0000
     13 H         -10.3620    1.7490   -0.5719 H       1  UNL1        0.0000
     14 H         -11.4033    3.1425   -0.4283 H       1  UNL1        0.0000
     15 H         -11.5058   -0.5038    2.1760 H       1  UNL1        0.0000
     16 H          -9.9062   -0.0186    2.7070 H       1  UNL1        0.0000
     17 H         -10.2513   -0.2376    0.9803 H       1  UNL1        0.0000
@<TRIPOS>BOND
     1    13     5    1
     2    12     5    1
     3    14     5    1
     4     5     1    1
     5    17     6    1
     6    10     4    1
     7     7     3    1
     8     1     6    1
     9     1     4    1
    10     1     3    1
    11     1     2    1
    12     8     3    1
    13     6    15    1
    14     6    16    1
    15     4     9    1
    16     4    11    1
