@<TRIPOS>MOLECULE
4,5
 41 40 0 0 0
SMALL
GASTEIGER

@<TRIPOS>ATOM
      1 SI          4.0978    8.4533    2.1758 Si      1  UNL1        0.0000
      2 SI          3.3203   10.7464    4.1560 Si      1  UNL1        0.0000
      3 SI          1.1975    9.7874    2.0699 Si      1  UNL1        0.0000
      4 O           0.0633    8.6067    2.5671 O.3     1  UNL1        0.0000
      5 C           2.6723    9.2817    3.1188 C.3     1  UNL1        0.0000
      6 C           3.5469    7.1937    0.8391 C.3     1  UNL1        0.0000
      7 H           2.6199    6.6980    1.1066 H       1  UNL1        0.0000
      8 H           4.3033    6.4280    0.6940 H       1  UNL1        0.0000
      9 H           3.3979    7.6782   -0.1184 H       1  UNL1        0.0000
     10 C           5.2619    9.6524    1.2385 C.3     1  UNL1        0.0000
     11 H           4.7181   10.2149    0.4866 H       1  UNL1        0.0000
     12 H           6.0584    9.1164    0.7309 H       1  UNL1        0.0000
     13 H           5.7200   10.3694    1.9092 H       1  UNL1        0.0000
     14 C           5.1790    7.4413    3.4046 C.3     1  UNL1        0.0000
     15 H           4.9614    7.6864    4.4413 H       1  UNL1        0.0000
     16 H           6.2360    7.6325    3.2473 H       1  UNL1        0.0000
     17 H           5.0249    6.3740    3.2755 H       1  UNL1        0.0000
     18 C           2.0570   11.2657    5.5120 C.3     1  UNL1        0.0000
     19 H           1.6762   12.2672    5.3369 H       1  UNL1        0.0000
     20 H           2.5162   11.2654    6.4952 H       1  UNL1        0.0000
     21 H           1.2094   10.5865    5.5411 H       1  UNL1        0.0000
     22 C           3.6287   12.2955    3.0602 C.3     1  UNL1        0.0000
     23 H           3.5442   12.0463    2.0092 H       1  UNL1        0.0000
     24 H           4.6213   12.7015    3.2214 H       1  UNL1        0.0000
     25 H           2.9202   13.0897    3.2665 H       1  UNL1        0.0000
     26 C           4.9992   10.4627    5.0327 C.3     1  UNL1        0.0000
     27 H           4.9698    9.6789    5.7793 H       1  UNL1        0.0000
     28 H           5.2988   11.3734    5.5432 H       1  UNL1        0.0000
     29 H           5.7792   10.2160    4.3220 H       1  UNL1        0.0000
     30 C           1.3037    9.6841    0.1610 C.3     1  UNL1        0.0000
     31 H           1.2358    8.6602   -0.1898 H       1  UNL1        0.0000
     32 H           2.2457   10.0868   -0.1915 H       1  UNL1        0.0000
     33 H           0.5099   10.2512   -0.3177 H       1  UNL1        0.0000
     34 C           0.3611   11.4838    2.3830 C.3     1  UNL1        0.0000
     35 H          -0.6453   11.5170    1.9718 H       1  UNL1        0.0000
     36 H           0.9273   12.2776    1.9116 H       1  UNL1        0.0000
     37 H           0.2961   11.7197    3.4383 H       1  UNL1        0.0000
     38 C          -1.1860    8.5186    1.9225 C.3     1  UNL1        0.0000
     39 H          -1.7852    9.4114    2.1176 H       1  UNL1        0.0000
     40 H          -1.7145    7.6442    2.2972 H       1  UNL1        0.0000
     41 H          -1.0562    8.4177    0.8440 H       1  UNL1        0.0000
@<TRIPOS>BOND
     1    33    30    1
     2    32    30    1
     3    31    30    1
     4     9     6    1
     5    30     3    1
     6    11    10    1
     7     8     6    1
     8    12    10    1
     9     6     7    1
    10     6     1    1
    11    41    38    1
    12    10    13    1
    13    10     1    1
    14    36    34    1
    15    38    39    1
    16    38    40    1
    17    38     4    1
    18    35    34    1
    19    23    22    1
    20     3    34    1
    21     3     4    1
    22     3     5    1
    23     1     5    1
    24     1    14    1
    25    34    37    1
    26    22    24    1
    27    22    25    1
    28    22     2    1
    29     5     2    1
    30    16    14    1
    31    17    14    1
    32    14    15    1
    33     2    26    1
    34     2    18    1
    35    29    26    1
    36    26    28    1
    37    26    27    1
    38    19    18    1
    39    18    21    1
    40    18    20    1
