@<TRIPOS>MOLECULE
4,5
 41 40 0 0 0
SMALL
GASTEIGER

@<TRIPOS>ATOM
      1 SI         -0.1615    4.5616    6.1404 Si      1  UNL1        0.0000
      2 SI         -0.4331    4.4803    2.9836 Si      1  UNL1        0.0000
      3 SI          2.3367    3.9800    4.3558 Si      1  UNL1        0.0000
      4 O           3.3093    5.1359    5.1250 O.3     1  UNL1        0.0000
      5 C           0.6816    4.8836    4.4589 C.3     1  UNL1        0.0000
      6 C          -0.9575    2.8267    6.3232 C.3     1  UNL1        0.0000
      7 H          -1.7646    2.6942    5.6112 H       1  UNL1        0.0000
      8 H          -1.3756    2.6898    7.3160 H       1  UNL1        0.0000
      9 H          -0.2401    2.0323    6.1563 H       1  UNL1        0.0000
     10 C          -1.6297    5.7606    6.4771 C.3     1  UNL1        0.0000
     11 H          -1.4893    6.7239    5.9971 H       1  UNL1        0.0000
     12 H          -1.7530    5.9304    7.5428 H       1  UNL1        0.0000
     13 H          -2.5610    5.3438    6.1121 H       1  UNL1        0.0000
     14 C           1.0338    4.7604    7.6315 C.3     1  UNL1        0.0000
     15 H           2.0663    4.8392    7.3130 H       1  UNL1        0.0000
     16 H           0.9665    3.9033    8.2949 H       1  UNL1        0.0000
     17 H           0.8129    5.6405    8.2281 H       1  UNL1        0.0000
     18 C          -0.5599    2.6116    2.5870 C.3     1  UNL1        0.0000
     19 H           0.4132    2.1957    2.3512 H       1  UNL1        0.0000
     20 H          -1.2123    2.4236    1.7396 H       1  UNL1        0.0000
     21 H          -0.9510    2.0569    3.4316 H       1  UNL1        0.0000
     22 C           0.1735    5.3014    1.3593 C.3     1  UNL1        0.0000
     23 H           0.4556    6.3394    1.5108 H       1  UNL1        0.0000
     24 H          -0.6017    5.2820    0.5984 H       1  UNL1        0.0000
     25 H           1.0313    4.7765    0.9545 H       1  UNL1        0.0000
     26 C          -2.2449    5.0651    3.2248 C.3     1  UNL1        0.0000
     27 H          -2.7862    4.3774    3.8642 H       1  UNL1        0.0000
     28 H          -2.7714    5.1067    2.2760 H       1  UNL1        0.0000
     29 H          -2.3051    6.0472    3.6814 H       1  UNL1        0.0000
     30 C           2.5295    2.3061    5.2600 C.3     1  UNL1        0.0000
     31 H           3.5375    1.9102    5.1681 H       1  UNL1        0.0000
     32 H           1.8535    1.5698    4.8401 H       1  UNL1        0.0000
     33 H           2.3020    2.3959    6.3166 H       1  UNL1        0.0000
     34 C           3.1321    3.7105    2.6361 C.3     1  UNL1        0.0000
     35 H           3.2253    4.6395    2.0846 H       1  UNL1        0.0000
     36 H           2.5482    3.0245    2.0348 H       1  UNL1        0.0000
     37 H           4.1293    3.2882    2.7313 H       1  UNL1        0.0000
     38 C           4.5416    4.8138    5.7283 C.3     1  UNL1        0.0000
     39 H           4.4144    4.0113    6.4562 H       1  UNL1        0.0000
     40 H           4.9187    5.6980    6.2417 H       1  UNL1        0.0000
     41 H           5.2708    4.4967    4.9800 H       1  UNL1        0.0000
@<TRIPOS>BOND
     1    24    22    1
     2    25    22    1
     3    22    23    1
     4    22     2    1
     5    20    18    1
     6    36    34    1
     7    35    34    1
     8    28    26    1
     9    19    18    1
    10    18     2    1
    11    18    21    1
    12    34    37    1
    13    34     3    1
    14     2    26    1
    15     2     5    1
    16    26    29    1
    17    26    27    1
    18     3     5    1
    19     3     4    1
    20     3    30    1
    21     5     1    1
    22    32    30    1
    23    41    38    1
    24     4    38    1
    25    31    30    1
    26    30    33    1
    27     7     6    1
    28    38    40    1
    29    38    39    1
    30    11    10    1
    31    13    10    1
    32     1     6    1
    33     1    10    1
    34     1    14    1
    35     9     6    1
    36     6     8    1
    37    10    12    1
    38    15    14    1
    39    14    17    1
    40    14    16    1
