@<TRIPOS>MOLECULE
2,4
 18 17 0 0 0
SMALL
GASTEIGER

@<TRIPOS>ATOM
      1 SI          0.2516   -2.4175    1.7922 Si      1  UNL1        0.0000
      2 O          -0.0202   -2.4145    5.0147 O.2     1  UNL1        0.0000
      3 C           1.5707   -2.3429    3.2042 C.3     1  UNL1        0.0000
      4 C           0.9804   -1.9360    4.4908 C.2     1  UNL1        0.0000
      5 C          -0.9136   -0.9157    1.7801 C.3     1  UNL1        0.0000
      6 C          -0.7503   -4.0227    2.0447 C.3     1  UNL1        0.0000
      7 C           1.2481   -2.4802    0.1668 C.3     1  UNL1        0.0000
      8 H           2.4026   -1.6888    2.9550 H       1  UNL1        0.0000
      9 H           1.9601   -3.3562    3.3242 H       1  UNL1        0.0000
     10 H          -1.5971   -0.9453    2.6235 H       1  UNL1        0.0000
     11 H          -1.5136   -0.9018    0.8744 H       1  UNL1        0.0000
     12 H          -0.3676    0.0213    1.8323 H       1  UNL1        0.0000
     13 H          -0.1356   -4.9100    1.9174 H       1  UNL1        0.0000
     14 H          -1.5717   -4.0911    1.3378 H       1  UNL1        0.0000
     15 H          -1.1741   -4.0541    3.0444 H       1  UNL1        0.0000
     16 H           0.5835   -2.5843   -0.6840 H       1  UNL1        0.0000
     17 H           1.9400   -3.3163    0.1446 H       1  UNL1        0.0000
     18 H           1.8255   -1.5728    0.0201 H       1  UNL1        0.0000
@<TRIPOS>BOND
     1    16     7    1
     2    18     7    1
     3    17     7    1
     4     7     1    1
     5    11     5    1
     6    14     6    1
     7     5     1    1
     8     5    12    1
     9     5    10    1
    10     1     6    1
    11     1     3    1
    12    13     6    1
    13     6    15    1
    14     8     3    1
    15     3     9    1
    16     3     4    1
    17     4     2    2
