@<TRIPOS>MOLECULE
1,9
 17 17 0 0 0
SMALL
GASTEIGER

@<TRIPOS>ATOM
      1 O           1.7871   10.0077    3.6838 O.3     1  UNL1       -0.2873
      2 C           0.6568    9.9917    4.3792 C.ar    1  UNL1        0.1850
      3 C          -0.2000   11.0947    4.4957 C.ar    1  UNL1       -0.0035
      4 C          -1.3820   10.9330    5.2042 C.ar    1  UNL1       -0.0552
      5 C          -1.7185    9.7194    5.7780 C.ar    1  UNL1       -0.0610
      6 C          -0.8622    8.6352    5.6691 C.ar    1  UNL1       -0.0549
      7 C           0.3345    8.7625    4.9850 C.ar    1  UNL1       -0.0001
      8 C           0.1516   12.3967    3.8410 C.3     1  UNL1       -0.0361
      9 C           1.3626    7.7008    4.8184 C.3     1  UNL1       -0.0199
     10 H          -2.0525   11.7750    5.2999 H       1  UNL1        0.0621
     11 H          -2.6493    9.6195    6.3161 H       1  UNL1        0.0618
     12 H          -1.1190    7.6891    6.1234 H       1  UNL1        0.0621
     13 H          -0.4454   13.2076    4.2509 H       1  UNL1        0.0279
     14 H          -0.0316   12.3356    2.7680 H       1  UNL1        0.0279
     15 H           1.2068   12.6238    3.9853 H       1  UNL1        0.0279
     16 H           0.8995    6.7385    4.5948 H       1  UNL1        0.0317
     17 H           1.9242    7.5880    5.7537 H       1  UNL1        0.0317
@<TRIPOS>BOND
     1    14     8    1
     2     1     2    1
     3     8    15    1
     4     8    13    1
     5     8     3    1
     6     2     3   ar
     7     2     7   ar
     8     3     4   ar
     9    16     9    1
    10     9     7    1
    11     9    17    1
    12     7     6   ar
    13     4    10    1
    14     4     5   ar
    15     6     5   ar
    16     6    12    1
    17     5    11    1
