@<TRIPOS>MOLECULE
3,5
 67 69 0 0 0
SMALL
GASTEIGER

@<TRIPOS>ATOM
      1 N          10.9041    8.8657    5.6483 N.pl3   1  UNL1        0.0000
      2 N          12.3277   10.4498    4.8811 N.pl3   1  UNL1        0.0000
      3 O          14.6725    8.6420    5.8460 O.2     1  UNL1        0.0000
      4 B          12.2862    9.1688    5.5071 B       1  UNL1        0.0000
      5 C          13.4799    8.2190    5.8675 C.2     1  UNL1        0.0000
      6 C          11.0339   10.8612    4.6703 C.2     1  UNL1        0.0000
      7 H          10.8116   11.8014    4.2032 H       1  UNL1        0.0000
      8 C          10.1837    9.9198    5.1412 C.2     1  UNL1        0.0000
      9 H           9.1105    9.9250    5.1429 H       1  UNL1        0.0000
     10 C          10.0931    6.9983    3.1549 C.3     1  UNL1        0.0000
     11 H           9.1182    6.5165    3.1027 H       1  UNL1        0.0000
     12 H          10.5864    6.8818    2.1925 H       1  UNL1        0.0000
     13 H           9.9420    8.0591    3.3382 H       1  UNL1        0.0000
     14 C           9.6026    9.2640    8.1924 C.3     1  UNL1        0.0000
     15 H          10.2392    9.9672    7.6476 H       1  UNL1        0.0000
     16 C          11.2286    4.8972    3.8876 C.3     1  UNL1        0.0000
     17 H          11.7932    4.4070    4.6759 H       1  UNL1        0.0000
     18 H          11.8306    4.8669    2.9828 H       1  UNL1        0.0000
     19 H          10.3101    4.3457    3.6973 H       1  UNL1        0.0000
     20 C           8.9335    5.6238    7.4067 C.ar    1  UNL1        0.0000
     21 H           8.4152    4.7895    7.8555 H       1  UNL1        0.0000
     22 C          10.9425    6.3509    4.2559 C.3     1  UNL1        0.0000
     23 H          11.9095    6.8666    4.3084 H       1  UNL1        0.0000
     24 C           8.9459    6.8495    8.0385 C.ar    1  UNL1        0.0000
     25 H           8.4348    6.9665    8.9815 H       1  UNL1        0.0000
     26 C           9.5840    5.4607    6.1973 C.ar    1  UNL1        0.0000
     27 H           9.5608    4.4953    5.7203 H       1  UNL1        0.0000
     28 C           9.6059    7.9332    7.4733 C.ar    1  UNL1        0.0000
     29 C          10.2576    6.5143    5.5959 C.ar    1  UNL1        0.0000
     30 C          10.2548    7.7568    6.2472 C.ar    1  UNL1        0.0000
     31 C          10.1724    9.1266    9.6056 C.3     1  UNL1        0.0000
     32 H           9.5337    8.5078   10.2302 H       1  UNL1        0.0000
     33 H          10.2554   10.1070   10.0707 H       1  UNL1        0.0000
     34 H          11.1602    8.6756    9.5698 H       1  UNL1        0.0000
     35 C           8.1861    9.8437    8.2417 C.3     1  UNL1        0.0000
     36 H           7.7807    9.9601    7.2391 H       1  UNL1        0.0000
     37 H           8.1958   10.8188    8.7240 H       1  UNL1        0.0000
     38 H           7.5221    9.1899    8.8019 H       1  UNL1        0.0000
     39 C          12.3029   11.2028    1.1013 C.3     1  UNL1        0.0000
     40 H          11.5831   11.8382    1.6126 H       1  UNL1        0.0000
     41 H          11.7646   10.5674    0.4016 H       1  UNL1        0.0000
     42 H          12.9806   11.8398    0.5376 H       1  UNL1        0.0000
     43 C          14.8781   11.6144    7.7088 C.3     1  UNL1        0.0000
     44 H          15.1931   10.6169    7.4079 H       1  UNL1        0.0000
     45 H          14.5764   11.5863    8.7534 H       1  UNL1        0.0000
     46 H          15.7241   12.2912    7.6142 H       1  UNL1        0.0000
     47 C          14.0547    9.4170    1.3888 C.3     1  UNL1        0.0000
     48 H          13.5083    8.7241    0.7529 H       1  UNL1        0.0000
     49 H          14.6274    8.8447    2.1157 H       1  UNL1        0.0000
     50 H          14.7473    9.9776    0.7655 H       1  UNL1        0.0000
     51 C          13.7073   12.0674    6.8357 C.3     1  UNL1        0.0000
     52 H          12.8839   11.3641    6.9931 H       1  UNL1        0.0000
     53 C          15.1523   12.8256    4.9279 C.ar    1  UNL1        0.0000
     54 H          15.6853   13.4547    5.6245 H       1  UNL1        0.0000
     55 C          15.5229   12.8231    3.5974 C.ar    1  UNL1        0.0000
     56 H          16.3386   13.4469    3.2621 H       1  UNL1        0.0000
     57 C          14.8485   12.0229    2.6958 C.ar    1  UNL1        0.0000
     58 H          15.1447   12.0281    1.6579 H       1  UNL1        0.0000
     59 C          13.0737   10.3440    2.1071 C.3     1  UNL1        0.0000
     60 H          12.3554    9.7132    2.6393 H       1  UNL1        0.0000
     61 C          14.1007   12.0392    5.3781 C.ar    1  UNL1        0.0000
     62 C          13.4227   11.2389    4.4544 C.ar    1  UNL1        0.0000
     63 C          13.7950   11.2181    3.1064 C.ar    1  UNL1        0.0000
     64 C          13.2224   13.4620    7.2386 C.3     1  UNL1        0.0000
     65 H          14.0163   14.1970    7.1318 H       1  UNL1        0.0000
     66 H          12.8958   13.4588    8.2763 H       1  UNL1        0.0000
     67 H          12.3855   13.7688    6.6144 H       1  UNL1        0.0000
@<TRIPOS>BOND
     1    41    39    1
     2    42    39    1
     3    48    47    1
     4    50    47    1
     5    39    40    1
     6    39    59    1
     7    47    59    1
     8    47    49    1
     9    58    57    1
    10    59    60    1
    11    59    63    1
    12    12    10    1
    13    57    63   ar
    14    57    55   ar
    15    18    16    1
    16    11    10    1
    17    63    62   ar
    18    10    13    1
    19    10    22    1
    20    56    55    1
    21    55    53   ar
    22    19    16    1
    23    16    22    1
    24    16    17    1
    25     7     6    1
    26    22    23    1
    27    22    29    1
    28    62     2    1
    29    62    61   ar
    30     6     2    1
    31     6     8    2
    32     2     4    1
    33    53    61   ar
    34    53    54    1
    35     8     9    1
    36     8     1    1
    37    61    51    1
    38     4     1    1
    39     4     5    2
    40    29    26   ar
    41    29    30   ar
    42     1    30    1
    43    27    26    1
    44     3     5    1
    45    26    20   ar
    46    30    28   ar
    47    67    64    1
    48    51    52    1
    49    51    64    1
    50    51    43    1
    51    65    64    1
    52    64    66    1
    53    36    35    1
    54    20    21    1
    55    20    24   ar
    56    44    43    1
    57    28    24   ar
    58    28    14    1
    59    46    43    1
    60    15    14    1
    61    43    45    1
    62    24    25    1
    63    14    35    1
    64    14    31    1
    65    35    37    1
    66    35    38    1
    67    34    31    1
    68    31    33    1
    69    31    32    1
