@<TRIPOS>MOLECULE
2,3
 26 25 0 0 0
SMALL
GASTEIGER

@<TRIPOS>ATOM
      1 SI         10.8374   -0.4890   12.4518 Si      1  UNL1        0.0000
      2 O           9.4690   -1.4561   12.6567 O.3     1  UNL1        0.0000
      3 C          10.2097    0.8846   13.5894 C.3     1  UNL1        0.0000
      4 C          10.8887    2.2347   13.3917 C.3     1  UNL1        0.0000
      5 C          10.2814    3.2820   14.3258 C.3     1  UNL1        0.0000
      6 C          12.3972    2.1543   13.6440 C.3     1  UNL1        0.0000
      7 C          11.0124    0.0342   10.6195 C.3     1  UNL1        0.0000
      8 C          12.3522   -1.5812   12.9013 C.3     1  UNL1        0.0000
      9 C           9.1906   -2.5569   11.8391 C.3     1  UNL1        0.0000
     10 H          10.3757    0.5982   14.6376 H       1  UNL1        0.0000
     11 H          10.7350    2.5621   12.3587 H       1  UNL1        0.0000
     12 H           9.2019    3.3181   14.1936 H       1  UNL1        0.0000
     13 H          10.5071    3.0363   15.3623 H       1  UNL1        0.0000
     14 H          10.6889    4.2679   14.1134 H       1  UNL1        0.0000
     15 H          12.5946    1.7503   14.6350 H       1  UNL1        0.0000
     16 H          12.8477    3.1426   13.5806 H       1  UNL1        0.0000
     17 H          12.8748    1.5104   12.9110 H       1  UNL1        0.0000
     18 H          11.1564   -0.8233    9.9678 H       1  UNL1        0.0000
     19 H          10.1277    0.5689   10.2820 H       1  UNL1        0.0000
     20 H          11.8636    0.6917   10.4831 H       1  UNL1        0.0000
     21 H          12.5341   -2.3452   12.1503 H       1  UNL1        0.0000
     22 H          12.2158   -2.0831   13.8552 H       1  UNL1        0.0000
     23 H          13.2528   -0.9823   12.9754 H       1  UNL1        0.0000
     24 H          10.0490   -3.2320   11.8062 H       1  UNL1        0.0000
     25 H           8.9560   -2.2313   10.8221 H       1  UNL1        0.0000
     26 H           8.3326   -3.0961   12.2428 H       1  UNL1        0.0000
@<TRIPOS>BOND
     1    18     7    1
     2    19     7    1
     3    20     7    1
     4     7     1    1
     5    25     9    1
     6    24     9    1
     7     9    26    1
     8     9     2    1
     9    21     8    1
    10    11     4    1
    11     1     2    1
    12     1     8    1
    13     1     3    1
    14     8    23    1
    15     8    22    1
    16    17     6    1
    17     4     3    1
    18     4     6    1
    19     4     5    1
    20    16     6    1
    21     3    10    1
    22     6    15    1
    23    14     5    1
    24    12     5    1
    25     5    13    1
