@<TRIPOS>MOLECULE
1,2
 15 15 0 0 0
SMALL
GASTEIGER

@<TRIPOS>ATOM
      1 O          10.7135    9.4919    2.6254 O.3     1  UNL1       -0.4945
      2 C           9.9650   10.8706    4.3513 C.ar    1  UNL1        0.0273
      3 C          10.9896   10.0124    3.8962 C.ar    1  UNL1        0.1279
      4 C          12.1296    9.7149    4.6206 C.ar    1  UNL1       -0.0193
      5 H          12.8958    9.0566    4.2396 H       1  UNL1        0.0654
      6 C          12.2907   10.2895    5.8743 C.ar    1  UNL1       -0.0583
      7 H          13.1784   10.0702    6.4497 H       1  UNL1        0.0619
      8 C          11.3212   11.1337    6.3733 C.ar    1  UNL1       -0.0610
      9 H          11.4469   11.5830    7.3485 H       1  UNL1        0.0618
     10 C          10.1849   11.4124    5.6206 C.ar    1  UNL1       -0.0504
     11 H           9.4473   12.0846    6.0494 H       1  UNL1        0.0625
     12 C          11.7114    8.7105    2.0032 C.3     1  UNL1        0.0788
     13 H          12.6483    9.2679    1.9048 H       1  UNL1        0.0660
     14 H          11.3342    8.4651    1.0110 H       1  UNL1        0.0660
     15 H          11.8960    7.7829    2.5566 H       1  UNL1        0.0660
@<TRIPOS>BOND
     1    14    12    1
     2    13    12    1
     3    12    15    1
     4    12     1    1
     5     1     3    1
     6     3     2   ar
     7     3     4   ar
     8     5     4    1
     9     2    10   ar
    10     4     6   ar
    11    10    11    1
    12    10     8   ar
    13     6     8   ar
    14     6     7    1
    15     8     9    1
