@<TRIPOS>MOLECULE
1,2
 25 26 0 0 0
SMALL
GASTEIGER

@<TRIPOS>ATOM
      1 O           0.3863    9.9815    1.8063 O.2     1  UNL1       -0.2831
      2 C           1.3269    9.1609    1.5335 C.2     1  UNL1        0.2341
      3 C           2.5600    8.9952    2.0443 C.2     1  UNL1        0.0398
      4 C           3.1309    9.9076    3.0484 C.ar    1  UNL1       -0.0135
      5 C           2.3302   10.7598    3.8096 C.ar    1  UNL1       -0.0539
      6 C           2.8918   11.6090    4.7432 C.ar    1  UNL1       -0.0612
      7 C           4.2630   11.6322    4.9356 C.ar    1  UNL1       -0.0617
      8 C           5.0701   10.8010    4.1766 C.ar    1  UNL1       -0.0612
      9 C           4.5139    9.9498    3.2419 C.ar    1  UNL1       -0.0539
     10 C           3.3670    7.8224    1.6454 C.ar    1  UNL1       -0.0135
     11 C           3.8558    6.9595    2.6279 C.ar    1  UNL1       -0.0539
     12 C           4.5638    5.8242    2.2832 C.ar    1  UNL1       -0.0612
     13 C           4.8043    5.5282    0.9510 C.ar    1  UNL1       -0.0617
     14 C           4.3428    6.3865   -0.0316 C.ar    1  UNL1       -0.0612
     15 C           3.6323    7.5229    0.3129 C.ar    1  UNL1       -0.0539
     16 H           1.2603   10.7542    3.6685 H       1  UNL1        0.0624
     17 H           2.2527   12.2561    5.3264 H       1  UNL1        0.0618
     18 H           4.7003   12.2952    5.6676 H       1  UNL1        0.0618
     19 H           6.1423   10.8178    4.3110 H       1  UNL1        0.0618
     20 H           5.1566    9.3155    2.6485 H       1  UNL1        0.0624
     21 H           3.6718    7.1853    3.6685 H       1  UNL1        0.0624
     22 H           4.9289    5.1645    3.0571 H       1  UNL1        0.0618
     23 H           5.3558    4.6394    0.6821 H       1  UNL1        0.0618
     24 H           4.5445    6.1734   -1.0723 H       1  UNL1        0.0618
     25 H           3.3084    8.2061   -0.4560 H       1  UNL1        0.0624
@<TRIPOS>BOND
     1    24    14    1
     2    25    15    1
     3    14    15   ar
     4    14    13   ar
     5    15    10   ar
     6    23    13    1
     7    13    12   ar
     8     2     1    1
     9     2     3    2
    10    10     3    1
    11    10    11   ar
    12     3     4    1
    13    12    11   ar
    14    12    22    1
    15    11    21    1
    16    20     9    1
    17     4     9   ar
    18     4     5   ar
    19     9     8   ar
    20    16     5    1
    21     5     6   ar
    22     8    19    1
    23     8     7   ar
    24     6     7   ar
    25     6    17    1
    26     7    18    1
