@<TRIPOS>MOLECULE
1,3
 26 25 0 0 0
SMALL
GASTEIGER

@<TRIPOS>ATOM
      1 C           4.5731    1.1475   13.0976 C.3     1  UNL1        0.0000
      2 SI          3.5241    1.8658   11.7166 Si      1  UNL1        0.0000
      3 O           2.8940    3.1810   12.6445 O.3     1  UNL1        0.0000
      4 SI          1.8974    4.4877   12.6488 Si      1  UNL1        0.0000
      5 C           2.0087    5.0376   14.4926 C.3     1  UNL1        0.0000
      6 C           0.1197    3.9707   12.2051 C.3     1  UNL1        0.0000
      7 C           2.5792    5.8319   11.4845 C.3     1  UNL1        0.0000
      8 C           1.9948    0.8738   11.1534 C.3     1  UNL1        0.0000
      9 C           4.4064    2.6904   10.2395 C.3     1  UNL1        0.0000
     10 H           5.6478    1.1651   12.8774 H       1  UNL1        0.0000
     11 H           4.2812    0.1269   13.3746 H       1  UNL1        0.0000
     12 H           3.0245    4.8469   14.8777 H       1  UNL1        0.0000
     13 H           1.8011    6.0990   14.6100 H       1  UNL1        0.0000
     14 H           1.2869    4.4905   15.1013 H       1  UNL1        0.0000
     15 H          -0.5783    4.7775   12.3968 H       1  UNL1        0.0000
     16 H           0.0339    3.7056   11.1569 H       1  UNL1        0.0000
     17 H          -0.1883    3.1120   12.7938 H       1  UNL1        0.0000
     18 H           3.6249    6.0317   11.6984 H       1  UNL1        0.0000
     19 H           2.5053    5.5285   10.4455 H       1  UNL1        0.0000
     20 H           2.0290    6.7595   11.5944 H       1  UNL1        0.0000
     21 H           1.3857    0.6076   12.0117 H       1  UNL1        0.0000
     22 H           1.3739    1.4417   10.4682 H       1  UNL1        0.0000
     23 H           2.2893   -0.0418   10.6540 H       1  UNL1        0.0000
     24 H           5.1243    3.4230   10.5950 H       1  UNL1        0.0000
     25 H           4.9405    1.9566    9.6473 H       1  UNL1        0.0000
     26 H           3.7067    3.2006    9.5854 H       1  UNL1        0.0000
@<TRIPOS>BOND
     1    26     9    1
     2    25     9    1
     3     9    24    1
     4     9     2    1
     5    19     7    1
     6    22     8    1
     7    23     8    1
     8     8     2    1
     9     8    21    1
    10    16     6    1
    11     7    20    1
    12     7    18    1
    13     7     4    1
    14     2     3    1
    15     2     1    1
    16     6    15    1
    17     6     4    1
    18     6    17    1
    19     3     4    1
    20     4     5    1
    21    10     1    1
    22     1    11    1
    23     5    13    1
    24     5    12    1
    25     5    14    1
