@<TRIPOS>MOLECULE
4,5
 41 40 0 0 0
SMALL
GASTEIGER

@<TRIPOS>ATOM
      1 SI          1.9444    0.8927    5.8678 Si      1  UNL1        0.0000
      2 SI          4.5996    1.3350    4.2093 Si      1  UNL1        0.0000
      3 SI          2.0060    0.1545    2.8083 Si      1  UNL1        0.0000
      4 O           0.5994    1.9509    5.7329 O.3     1  UNL1        0.0000
      5 C           2.6957    1.2744    4.1831 C.3     1  UNL1        0.0000
      6 C          -0.5257    1.8691    6.5765 C.3     1  UNL1        0.0000
      7 H          -1.0475    0.9219    6.4227 H       1  UNL1        0.0000
      8 H          -1.2040    2.6912    6.3394 H       1  UNL1        0.0000
      9 H          -0.2336    1.9417    7.6267 H       1  UNL1        0.0000
     10 C           1.2978   -0.8537    6.2726 C.3     1  UNL1        0.0000
     11 H           0.8666   -0.8999    7.2689 H       1  UNL1        0.0000
     12 H           2.1159   -1.5638    6.2391 H       1  UNL1        0.0000
     13 H           0.5446   -1.1880    5.5688 H       1  UNL1        0.0000
     14 C           2.8946    1.4332    7.4395 C.3     1  UNL1        0.0000
     15 H           3.5491    2.2780    7.2598 H       1  UNL1        0.0000
     16 H           3.5107    0.6191    7.8040 H       1  UNL1        0.0000
     17 H           2.2127    1.7059    8.2418 H       1  UNL1        0.0000
     18 C           5.2362    2.9260    5.0842 C.3     1  UNL1        0.0000
     19 H           5.8390    3.5293    4.4111 H       1  UNL1        0.0000
     20 H           5.8572    2.6797    5.9404 H       1  UNL1        0.0000
     21 H           4.4211    3.5532    5.4417 H       1  UNL1        0.0000
     22 C           5.3246   -0.1599    5.1486 C.3     1  UNL1        0.0000
     23 H           6.4082   -0.1629    5.1010 H       1  UNL1        0.0000
     24 H           4.9738   -1.0921    4.7225 H       1  UNL1        0.0000
     25 H           5.0396   -0.1509    6.1941 H       1  UNL1        0.0000
     26 C           5.4117    1.3249    2.4788 C.3     1  UNL1        0.0000
     27 H           5.1437    2.1868    1.8772 H       1  UNL1        0.0000
     28 H           5.1489    0.4341    1.9204 H       1  UNL1        0.0000
     29 H           6.4924    1.3351    2.5850 H       1  UNL1        0.0000
     30 C           2.7096   -1.6194    2.7977 C.3     1  UNL1        0.0000
     31 H           3.7760   -1.6142    2.6037 H       1  UNL1        0.0000
     32 H           2.2389   -2.2230    2.0280 H       1  UNL1        0.0000
     33 H           2.5504   -2.1147    3.7489 H       1  UNL1        0.0000
     34 C           2.3550    0.8854    1.0621 C.3     1  UNL1        0.0000
     35 H           2.7673    1.8908    1.1056 H       1  UNL1        0.0000
     36 H           1.4569    0.9236    0.4525 H       1  UNL1        0.0000
     37 H           3.0752    0.2723    0.5305 H       1  UNL1        0.0000
     38 C           0.0982   -0.0489    2.9616 C.3     1  UNL1        0.0000
     39 H          -0.3433    0.7100    3.6039 H       1  UNL1        0.0000
     40 H          -0.1504   -1.0149    3.3888 H       1  UNL1        0.0000
     41 H          -0.3942    0.0050    1.9955 H       1  UNL1        0.0000
@<TRIPOS>BOND
     1    36    34    1
     2    37    34    1
     3    34    35    1
     4    34     3    1
     5    27    26    1
     6    28    26    1
     7    41    38    1
     8    32    30    1
     9    26    29    1
    10    26     2    1
    11    31    30    1
    12    30     3    1
    13    30    33    1
    14     3    38    1
    15     3     5    1
    16    38    40    1
    17    38    39    1
    18     5     2    1
    19     5     1    1
    20     2    18    1
    21     2    22    1
    22    19    18    1
    23    24    22    1
    24    18    21    1
    25    18    20    1
    26    23    22    1
    27    22    25    1
    28    13    10    1
    29     4     1    1
    30     4     6    1
    31     1    10    1
    32     1    14    1
    33    12    10    1
    34    10    11    1
    35     8     6    1
    36     7     6    1
    37     6     9    1
    38    15    14    1
    39    14    16    1
    40    14    17    1
