@<TRIPOS>MOLECULE
3,10
 56 57 0 0 0
SMALL
GASTEIGER

@<TRIPOS>ATOM
      1 SI          9.1290   14.3988    5.0573 Si      1  UNL1        0.0000
      2 SI         14.3973   15.2805    6.2533 Si      1  UNL1        0.0000
      3 O          12.2689   11.7798    7.7258 O.3     1  UNL1        0.0000
      4 C          11.2449   12.5355    8.2975 C.3     1  UNL1        0.0000
      5 C          10.2409   12.9103    7.2208 C.2     1  UNL1        0.0000
      6 H           9.3573   12.2828    7.1707 H       1  UNL1        0.0000
      7 C          10.4132   13.9231    6.3657 C.2     1  UNL1        0.0000
      8 C          11.6349   14.7371    6.3662 C.2     1  UNL1        0.0000
      9 H          11.4598   15.8126    6.4317 H       1  UNL1        0.0000
     10 C          12.8527   14.2025    6.2305 C.2     1  UNL1        0.0000
     11 C           7.5556   13.3186    5.1915 C.3     1  UNL1        0.0000
     12 H           7.0823   13.4230    6.1633 H       1  UNL1        0.0000
     13 H           7.7719   12.2654    5.0429 H       1  UNL1        0.0000
     14 H           6.8269   13.6096    4.4410 H       1  UNL1        0.0000
     15 C           8.6067   16.2108    5.3956 C.3     1  UNL1        0.0000
     16 H           9.4276   16.9009    5.2284 H       1  UNL1        0.0000
     17 H           8.2674   16.3479    6.4180 H       1  UNL1        0.0000
     18 H           7.7943   16.5071    4.7397 H       1  UNL1        0.0000
     19 C           9.8763   14.3043    3.3034 C.3     1  UNL1        0.0000
     20 H          10.8483   14.7905    3.2807 H       1  UNL1        0.0000
     21 H           9.2418   14.7919    2.5687 H       1  UNL1        0.0000
     22 H          10.0233   13.2759    2.9858 H       1  UNL1        0.0000
     23 C          15.7915   14.3797    7.2114 C.3     1  UNL1        0.0000
     24 H          16.7395   14.4438    6.6853 H       1  UNL1        0.0000
     25 H          15.5352   13.3267    7.3138 H       1  UNL1        0.0000
     26 H          15.9369   14.7928    8.2043 H       1  UNL1        0.0000
     27 C          15.0796   15.6827    4.4987 C.3     1  UNL1        0.0000
     28 H          15.8416   16.4547    4.5572 H       1  UNL1        0.0000
     29 H          14.3023   16.0442    3.8314 H       1  UNL1        0.0000
     30 H          15.5332   14.8085    4.0411 H       1  UNL1        0.0000
     31 C          14.0832   16.9833    7.0818 C.3     1  UNL1        0.0000
     32 H          15.0128   17.5145    7.2581 H       1  UNL1        0.0000
     33 H          13.5801   16.8681    8.0364 H       1  UNL1        0.0000
     34 H          13.4621   17.6157    6.4557 H       1  UNL1        0.0000
     35 C          10.5648   11.7947    9.4474 C.ar    1  UNL1        0.0000
     36 C           9.2963   12.1395    9.8966 C.ar    1  UNL1        0.0000
     37 H           8.7146   12.8829    9.3722 H       1  UNL1        0.0000
     38 C           8.7703   11.5397   11.0282 C.ar    1  UNL1        0.0000
     39 H           7.7855   11.8204   11.3743 H       1  UNL1        0.0000
     40 C           9.5007   10.5905   11.7230 C.ar    1  UNL1        0.0000
     41 H           9.0897   10.1346   12.6123 H       1  UNL1        0.0000
     42 C          10.7584   10.2319   11.2683 C.ar    1  UNL1        0.0000
     43 H          11.3336    9.4893   11.8044 H       1  UNL1        0.0000
     44 C          11.2829   10.8327   10.1397 C.ar    1  UNL1        0.0000
     45 H          12.2614   10.5824    9.7670 H       1  UNL1        0.0000
     46 C          11.8036   13.7746    9.0098 C.ar    1  UNL1        0.0000
     47 C          13.1330   13.7923    9.4114 C.ar    1  UNL1        0.0000
     48 H          13.7719   12.9663    9.1204 H       1  UNL1        0.0000
     49 C          13.6244   14.8508   10.1547 C.ar    1  UNL1        0.0000
     50 H          14.6563   14.8568   10.4737 H       1  UNL1        0.0000
     51 C          12.7982   15.9054   10.5024 C.ar    1  UNL1        0.0000
     52 H          13.1840   16.7301   11.0837 H       1  UNL1        0.0000
     53 C          11.4748   15.8977   10.0961 C.ar    1  UNL1        0.0000
     54 H          10.8248   16.7207   10.3561 H       1  UNL1        0.0000
     55 C          10.9782   14.8364    9.3623 C.ar    1  UNL1        0.0000
     56 H           9.9448   14.8424    9.0498 H       1  UNL1        0.0000
@<TRIPOS>BOND
     1    21    19    1
     2    22    19    1
     3    20    19    1
     4    19     1    1
     5    29    27    1
     6    30    27    1
     7    14    11    1
     8    27    28    1
     9    27     2    1
    10    18    15    1
    11    13    11    1
    12     1    11    1
    13     1    15    1
    14     1     7    1
    15    11    12    1
    16    16    15    1
    17    15    17    1
    18    10     2    1
    19    10     8    2
    20     2    31    1
    21     2    23    1
    22     7     8    1
    23     7     5    2
    24     8     9    1
    25    34    31    1
    26    24    23    1
    27    31    32    1
    28    31    33    1
    29     6     5    1
    30    23    25    1
    31    23    26    1
    32     5     4    1
    33     3     4    1
    34     4    46    1
    35     4    35    1
    36    46    55   ar
    37    46    47   ar
    38    56    55    1
    39    48    47    1
    40    55    53   ar
    41    37    36    1
    42    47    49   ar
    43    35    36   ar
    44    35    44   ar
    45    45    44    1
    46    36    38   ar
    47    53    54    1
    48    53    51   ar
    49    44    42   ar
    50    49    50    1
    51    49    51   ar
    52    51    52    1
    53    38    39    1
    54    38    40   ar
    55    42    40   ar
    56    42    43    1
    57    40    41    1
