@<TRIPOS>MOLECULE
1,5
 46 47 0 0 0
SMALL
GASTEIGER

@<TRIPOS>ATOM
      1 O           7.7063   -0.8786    0.8104 O.3     1  UNL1       -0.2128
      2 C           7.9885    0.4869    0.6582 C.3     1  UNL1        0.1731
      3 C           6.9141    1.2672    1.3940 C.2     1  UNL1       -0.0367
      4 H           7.1314    2.3098    1.6192 H       1  UNL1        0.0611
      5 C           5.7549    0.6493    1.6225 C.2     1  UNL1       -0.0390
      6 C           7.9229    0.8281   -0.8433 C.ar    1  UNL1       -0.0045
      7 C           9.0214    0.6094   -1.6657 C.ar    1  UNL1       -0.0549
      8 H           9.9399    0.2301   -1.2453 H       1  UNL1        0.0621
      9 C           8.9577    0.8737   -3.0233 C.ar    1  UNL1       -0.0585
     10 H           9.8329    0.7121   -3.6370 H       1  UNL1        0.0620
     11 C           7.7942    1.3512   -3.6071 C.ar    1  UNL1       -0.0504
     12 C           6.6931    1.5646   -2.7854 C.ar    1  UNL1       -0.0585
     13 H           5.7742    1.9371   -3.2168 H       1  UNL1        0.0620
     14 C           6.7545    1.3130   -1.4269 C.ar    1  UNL1       -0.0549
     15 H           5.8828    1.5000   -0.8148 H       1  UNL1        0.0621
     16 C           7.7123    1.6345   -5.0773 C.3     1  UNL1       -0.0397
     17 H           8.6508    1.3982   -5.5729 H       1  UNL1        0.0278
     18 H           7.4854    2.6861   -5.2490 H       1  UNL1        0.0278
     19 H           6.9179    1.0450   -5.5338 H       1  UNL1        0.0278
     20 C           9.3966    0.8094    1.1418 C.ar    1  UNL1       -0.0045
     21 C          10.3354   -0.2127    1.2141 C.ar    1  UNL1       -0.0549
     22 H          10.0218   -1.2087    0.9430 H       1  UNL1        0.0621
     23 C          11.6375    0.0392    1.6042 C.ar    1  UNL1       -0.0585
     24 H          12.3495   -0.7743    1.6513 H       1  UNL1        0.0620
     25 C          12.0449    1.3249    1.9327 C.ar    1  UNL1       -0.0504
     26 C          11.1123    2.3500    1.8371 C.ar    1  UNL1       -0.0585
     27 H          11.4124    3.3620    2.0713 H       1  UNL1        0.0620
     28 C           9.8111    2.1019    1.4387 C.ar    1  UNL1       -0.0549
     29 H           9.1263    2.9316    1.3496 H       1  UNL1        0.0621
     30 C          13.4457    1.6031    2.3883 C.3     1  UNL1       -0.0397
     31 H          14.1231    0.8143    2.0688 H       1  UNL1        0.0278
     32 H          13.4794    1.6589    3.4771 H       1  UNL1        0.0278
     33 H          13.7998    2.5533    1.9938 H       1  UNL1        0.0278
     34 C           4.5651    1.3911    2.2248 C.3     1  UNL1       -0.0126
     35 C           4.9492    2.6242    3.0587 C.3     1  UNL1       -0.0560
     36 H           5.4439    3.3746    2.4476 H       1  UNL1        0.0238
     37 H           5.6091    2.3510    3.8761 H       1  UNL1        0.0238
     38 H           4.0502    3.0758    3.4755 H       1  UNL1        0.0238
     39 C           3.7675    0.4380    3.1260 C.3     1  UNL1       -0.0560
     40 H           3.3192   -0.3646    2.5441 H       1  UNL1        0.0238
     41 H           2.9696    0.9742    3.6397 H       1  UNL1        0.0238
     42 H           4.4270   -0.0064    3.8711 H       1  UNL1        0.0238
     43 C           3.6741    1.8711    1.0645 C.3     1  UNL1       -0.0560
     44 H           3.5019    1.0670    0.3486 H       1  UNL1        0.0238
     45 H           4.1547    2.6950    0.5390 H       1  UNL1        0.0238
     46 H           2.7127    2.2180    1.4407 H       1  UNL1        0.0238
@<TRIPOS>BOND
     1    17    16    1
     2    19    16    1
     3    18    16    1
     4    16    11    1
     5    10     9    1
     6    11     9   ar
     7    11    12   ar
     8    13    12    1
     9     9     7   ar
    10    12    14   ar
    11     7     8    1
    12     7     6   ar
    13    14     6   ar
    14    14    15    1
    15     6     2    1
    16    44    43    1
    17    45    43    1
    18     2     1    1
    19     2    20    1
    20     2     3    1
    21    22    21    1
    22    43    46    1
    23    43    34    1
    24    20    21   ar
    25    20    28   ar
    26    21    23   ar
    27    29    28    1
    28     3     4    1
    29     3     5    2
    30    28    26   ar
    31    23    24    1
    32    23    25   ar
    33     5    34    1
    34    26    25   ar
    35    26    27    1
    36    25    30    1
    37    33    30    1
    38    31    30    1
    39    34    35    1
    40    34    39    1
    41    30    32    1
    42    36    35    1
    43    40    39    1
    44    35    38    1
    45    35    37    1
    46    39    41    1
    47    39    42    1
