@<TRIPOS>MOLECULE
3,4
 38 37 0 0 0
SMALL
GASTEIGER

@<TRIPOS>ATOM
      1 SI         11.4375    0.5792   11.9075 Si      1  UNL1        0.0000
      2 SI         12.7460   -0.7473    8.7509 Si      1  UNL1        0.0000
      3 O           8.6841    0.2236    8.3591 O.3     1  UNL1        0.0000
      4 C          10.5148    0.2802   10.2987 C.2     1  UNL1        0.0000
      5 C          10.9734   -0.1291    9.0990 C.2     1  UNL1        0.0000
      6 C          12.6286   -0.7079   12.6956 C.3     1  UNL1        0.0000
      7 C          10.0782    0.7496   13.2693 C.3     1  UNL1        0.0000
      8 C          12.3359    2.2856   11.8831 C.3     1  UNL1        0.0000
      9 C          14.0452    0.4883    9.4231 C.3     1  UNL1        0.0000
     10 C          12.8988   -2.4747    9.5704 C.3     1  UNL1        0.0000
     11 C          13.3680   -0.9970    6.9486 C.3     1  UNL1        0.0000
     12 C           9.9575   -0.1839    7.9427 C.3     1  UNL1        0.0000
     13 C           9.8415   -1.6330    7.4278 C.3     1  UNL1        0.0000
     14 C          10.3970    0.7596    6.8064 C.3     1  UNL1        0.0000
     15 H          13.0003   -0.3446   13.6496 H       1  UNL1        0.0000
     16 H          12.1159   -1.6461   12.8860 H       1  UNL1        0.0000
     17 H          13.4850   -0.9280   12.0702 H       1  UNL1        0.0000
     18 H          10.4782    1.2452   14.1498 H       1  UNL1        0.0000
     19 H           9.2254    1.3361   12.9211 H       1  UNL1        0.0000
     20 H           9.7141   -0.2200   13.5973 H       1  UNL1        0.0000
     21 H          12.0769    2.8827   12.7527 H       1  UNL1        0.0000
     22 H          13.4142    2.1723   11.8815 H       1  UNL1        0.0000
     23 H          12.0677    2.8563   10.9988 H       1  UNL1        0.0000
     24 H          15.0150    0.2934    8.9752 H       1  UNL1        0.0000
     25 H          13.7765    1.5134    9.1898 H       1  UNL1        0.0000
     26 H          14.1626    0.4201   10.4960 H       1  UNL1        0.0000
     27 H          13.9318   -2.7062    9.8118 H       1  UNL1        0.0000
     28 H          12.3215   -2.5316   10.4865 H       1  UNL1        0.0000
     29 H          12.5387   -3.2558    8.9070 H       1  UNL1        0.0000
     30 H          14.3259   -1.5098    6.9824 H       1  UNL1        0.0000
     31 H          12.7119   -1.5976    6.3282 H       1  UNL1        0.0000
     32 H          13.5336   -0.0518    6.4403 H       1  UNL1        0.0000
     33 H           8.9738   -1.7027    6.7738 H       1  UNL1        0.0000
     34 H          10.7257   -1.9355    6.8791 H       1  UNL1        0.0000
     35 H           9.7026   -2.3036    8.2745 H       1  UNL1        0.0000
     36 H           9.6194    0.7747    6.0445 H       1  UNL1        0.0000
     37 H          10.5126    1.7660    7.2074 H       1  UNL1        0.0000
     38 H          11.3297    0.4408    6.3584 H       1  UNL1        0.0000
@<TRIPOS>BOND
     1    36    14    1
     2    31    11    1
     3    38    14    1
     4    32    11    1
     5    33    13    1
     6    14    37    1
     7    14    12    1
     8    34    13    1
     9    11    30    1
    10    11     2    1
    11    13    12    1
    12    13    35    1
    13    12     3    1
    14    12     5    1
    15     2     5    1
    16     2     9    1
    17     2    10    1
    18    29    10    1
    19    24     9    1
    20     5     4    2
    21    25     9    1
    22     9    26    1
    23    10    27    1
    24    10    28    1
    25     4     1    1
    26    23     8    1
    27    22     8    1
    28     8     1    1
    29     8    21    1
    30     1     6    1
    31     1     7    1
    32    17     6    1
    33     6    16    1
    34     6    15    1
    35    19     7    1
    36     7    20    1
    37     7    18    1
