@<TRIPOS>MOLECULE
1,2
 18 17 0 0 0
SMALL
GASTEIGER

@<TRIPOS>ATOM
      1 O           3.3225    3.6381    4.1520 O.2     1  UNL1        0.0000
      2 C           2.8365    2.5402    3.9428 C.2     1  UNL1        0.0000
      3 C           2.6218    1.9378    2.6180 C.3     1  UNL1        0.0000
      4 SI          0.7865    2.0930    2.0256 Si      1  UNL1        0.0000
      5 C           0.1570    3.8782    2.2179 C.3     1  UNL1        0.0000
      6 C           0.8205    1.6280    0.1707 C.3     1  UNL1        0.0000
      7 C          -0.2371    0.8013    2.9864 C.3     1  UNL1        0.0000
      8 H           2.8542    0.8761    2.6510 H       1  UNL1        0.0000
      9 H           3.2714    2.4224    1.8850 H       1  UNL1        0.0000
     10 H           0.9428    4.6009    2.0142 H       1  UNL1        0.0000
     11 H          -0.1986    4.0541    3.2275 H       1  UNL1        0.0000
     12 H          -0.6651    4.0847    1.5388 H       1  UNL1        0.0000
     13 H           1.2855    0.6613    0.0029 H       1  UNL1        0.0000
     14 H           1.3666    2.3600   -0.4158 H       1  UNL1        0.0000
     15 H          -0.1870    1.5790   -0.2286 H       1  UNL1        0.0000
     16 H           0.2074    0.6125    3.9607 H       1  UNL1        0.0000
     17 H          -0.3038   -0.1418    2.4507 H       1  UNL1        0.0000
     18 H          -1.2499    1.1524    3.1540 H       1  UNL1        0.0000
@<TRIPOS>BOND
     1    14     6    1
     2    15     6    1
     3    13     6    1
     4     6     4    1
     5    12     5    1
     6     9     3    1
     7    10     5    1
     8     4     5    1
     9     4     3    1
    10     4     7    1
    11     5    11    1
    12    17     7    1
    13     3     8    1
    14     3     2    1
    15     7    18    1
    16     7    16    1
    17     2     1    2
