@<TRIPOS>MOLECULE
2,3
 36 36 0 0 0
SMALL
GASTEIGER

@<TRIPOS>ATOM
      1 SI          0.7017    0.1464    8.9874 Si      1  UNL1        0.0000
      2 O           4.6926   -0.2078    7.1160 O.3     1  UNL1        0.0000
      3 C           2.3603   -0.0834    8.1023 C.2     1  UNL1        0.0000
      4 C           2.4375   -0.8063    6.9788 C.2     1  UNL1        0.0000
      5 C           3.8092   -0.9081    6.3053 C.3     1  UNL1        0.0000
      6 C           4.2615   -2.3761    6.1853 C.3     1  UNL1        0.0000
      7 C           3.7756   -0.2811    4.8976 C.3     1  UNL1        0.0000
      8 C          -0.4302    1.3609    8.0214 C.3     1  UNL1        0.0000
      9 C           0.9280    0.8653   10.7549 C.3     1  UNL1        0.0000
     10 C          -0.3075   -1.4635    9.2527 C.3     1  UNL1        0.0000
     11 C           1.3152   -1.5036    6.3086 C.ar    1  UNL1        0.0000
     12 C           0.5119   -0.8241    5.3981 C.ar    1  UNL1        0.0000
     13 C          -0.5356   -1.4682    4.7644 C.ar    1  UNL1        0.0000
     14 C          -0.7940   -2.8025    5.0288 C.ar    1  UNL1        0.0000
     15 C           0.0000   -3.4878    5.9328 C.ar    1  UNL1        0.0000
     16 C           1.0467   -2.8439    6.5678 C.ar    1  UNL1        0.0000
     17 H           5.2942   -2.4044    5.8426 H       1  UNL1        0.0000
     18 H           3.6324   -2.9099    5.4784 H       1  UNL1        0.0000
     19 H           4.1997   -2.8611    7.1572 H       1  UNL1        0.0000
     20 H           4.7755   -0.3102    4.4680 H       1  UNL1        0.0000
     21 H           3.4507    0.7553    4.9628 H       1  UNL1        0.0000
     22 H           3.0936   -0.8325    4.2558 H       1  UNL1        0.0000
     23 H           0.1088    2.2402    7.6817 H       1  UNL1        0.0000
     24 H          -1.2550    1.6994    8.6413 H       1  UNL1        0.0000
     25 H          -0.8550    0.8772    7.1479 H       1  UNL1        0.0000
     26 H           1.6397    1.6847   10.7868 H       1  UNL1        0.0000
     27 H           1.2639    0.1075   11.4558 H       1  UNL1        0.0000
     28 H          -0.0204    1.2432   11.1250 H       1  UNL1        0.0000
     29 H           0.3169   -2.2752    9.6135 H       1  UNL1        0.0000
     30 H          -0.7753   -1.7963    8.3329 H       1  UNL1        0.0000
     31 H          -1.0934   -1.3049    9.9849 H       1  UNL1        0.0000
     32 H           0.7142    0.2164    5.1906 H       1  UNL1        0.0000
     33 H          -1.1530   -0.9281    4.0607 H       1  UNL1        0.0000
     34 H          -1.6116   -3.3056    4.5336 H       1  UNL1        0.0000
     35 H          -0.1996   -4.5283    6.1457 H       1  UNL1        0.0000
     36 H           1.6566   -3.3774    7.2813 H       1  UNL1        0.0000
@<TRIPOS>BOND
     1    33    13    1
     2    22     7    1
     3    20     7    1
     4    34    14    1
     5    13    14   ar
     6    13    12   ar
     7     7    21    1
     8     7     5    1
     9    14    15   ar
    10    32    12    1
    11    12    11   ar
    12    18     6    1
    13    17     6    1
    14    15    35    1
    15    15    16   ar
    16     6     5    1
    17     6    19    1
    18     5     4    1
    19     5     2    1
    20    11    16   ar
    21    11     4    1
    22    16    36    1
    23     4     3    2
    24    25     8    1
    25    23     8    1
    26     8    24    1
    27     8     1    1
    28     3     1    1
    29    30    10    1
    30     1    10    1
    31     1     9    1
    32    10    29    1
    33    10    31    1
    34     9    26    1
    35     9    28    1
    36     9    27    1
