@<TRIPOS>MOLECULE
1
 95 95 0 0 0
SMALL
GASTEIGER

@<TRIPOS>ATOM
      1 SE         12.7619    7.1558    0.6592 Se      1  UNL1        0.0000
      2 SI         15.4219    4.2639    2.4570 Si      1  UNL1        0.0000
      3 SI         12.7111    2.2335    2.5304 Si      1  UNL1        0.0000
      4 SI         16.7548    1.9741   -3.1909 Si      1  UNL1        0.0000
      5 SI         14.1390   -0.0652   -2.9901 Si      1  UNL1        0.0000
      6 SI         12.7277    6.9251   -3.1948 Si      1  UNL1        0.0000
      7 SI         10.3336    4.6527   -2.7496 Si      1  UNL1        0.0000
      8 C          12.8483    5.3635    0.7775 C.3     1  UNL1        0.0000
      9 C          13.2100    4.4300   -0.2198 C.ar    1  UNL1        0.0000
     10 C          13.9433    3.2755    0.1897 C.ar    1  UNL1        0.0000
     11 C          14.4464    2.4283   -0.7758 C.ar    1  UNL1        0.0000
     12 C          14.2364    2.6282   -2.1389 C.ar    1  UNL1        0.0000
     13 C          13.4335    3.6949   -2.5150 C.ar    1  UNL1        0.0000
     14 C          12.8925    4.5818   -1.6001 C.ar    1  UNL1        0.0000
     15 C          14.2584    2.9637    1.6137 C.3     1  UNL1        0.0000
     16 C          14.8387    1.7267   -3.1502 C.3     1  UNL1        0.0000
     17 C          11.9038    5.5683   -2.0934 C.3     1  UNL1        0.0000
     18 C          14.6163    5.4726    3.6890 C.3     1  UNL1        0.0000
     19 C          16.7193    3.2443    3.4183 C.3     1  UNL1        0.0000
     20 C          16.3179    5.2444    1.0872 C.3     1  UNL1        0.0000
     21 C          11.1088    3.2614    2.5978 C.3     1  UNL1        0.0000
     22 C          13.2424    1.7819    4.3039 C.3     1  UNL1        0.0000
     23 C          12.2837    0.6347    1.5728 C.3     1  UNL1        0.0000
     24 C          17.0886    3.8379   -2.9559 C.3     1  UNL1        0.0000
     25 C          17.7059    1.0020   -1.8546 C.3     1  UNL1        0.0000
     26 C          17.4008    1.4467   -4.9061 C.3     1  UNL1        0.0000
     27 C          12.2373    0.0867   -3.0822 C.3     1  UNL1        0.0000
     28 C          14.5770   -0.9907   -1.3814 C.3     1  UNL1        0.0000
     29 C          14.7684   -1.0989   -4.4638 C.3     1  UNL1        0.0000
     30 C          11.8331    8.5675   -2.8307 C.3     1  UNL1        0.0000
     31 C          14.5677    7.0603   -2.7123 C.3     1  UNL1        0.0000
     32 C          12.6116    6.5566   -5.0637 C.3     1  UNL1        0.0000
     33 C           8.9974    5.9750   -3.0579 C.3     1  UNL1        0.0000
     34 C           9.7899    3.4827   -1.3422 C.3     1  UNL1        0.0000
     35 C          10.5492    3.6043   -4.3291 C.3     1  UNL1        0.0000
     36 H          12.7596    4.9727    1.7812 H       1  UNL1        0.0000
     37 H          15.0402    1.5817   -0.4713 H       1  UNL1        0.0000
     38 H          13.2111    3.8463   -3.5593 H       1  UNL1        0.0000
     39 H          14.9042    2.0777    1.5735 H       1  UNL1        0.0000
     40 H          14.4964    2.0689   -4.1327 H       1  UNL1        0.0000
     41 H          11.5088    6.1275   -1.2420 H       1  UNL1        0.0000
     42 H          15.3732    5.8820    4.3517 H       1  UNL1        0.0000
     43 H          14.1399    6.3166    3.1948 H       1  UNL1        0.0000
     44 H          13.8734    4.9864    4.3124 H       1  UNL1        0.0000
     45 H          16.2576    2.6530    4.2018 H       1  UNL1        0.0000
     46 H          17.2579    2.5636    2.7664 H       1  UNL1        0.0000
     47 H          17.4527    3.8912    3.8889 H       1  UNL1        0.0000
     48 H          17.1044    5.8670    1.5028 H       1  UNL1        0.0000
     49 H          16.7747    4.5795    0.3602 H       1  UNL1        0.0000
     50 H          15.6338    5.8964    0.5505 H       1  UNL1        0.0000
     51 H          11.1931    4.1332    3.2378 H       1  UNL1        0.0000
     52 H          10.7958    3.5957    1.6138 H       1  UNL1        0.0000
     53 H          10.3052    2.6511    3.0011 H       1  UNL1        0.0000
     54 H          12.4441    1.2567    4.8185 H       1  UNL1        0.0000
     55 H          14.1134    1.1347    4.3071 H       1  UNL1        0.0000
     56 H          13.4840    2.6610    4.8914 H       1  UNL1        0.0000
     57 H          11.3774    0.1734    1.9523 H       1  UNL1        0.0000
     58 H          12.1289    0.8396    0.5171 H       1  UNL1        0.0000
     59 H          13.0786   -0.1008    1.6530 H       1  UNL1        0.0000
     60 H          18.1524    4.0507   -2.9124 H       1  UNL1        0.0000
     61 H          16.6746    4.4173   -3.7759 H       1  UNL1        0.0000
     62 H          16.6403    4.2059   -2.0380 H       1  UNL1        0.0000
     63 H          17.6218   -0.0698   -2.0020 H       1  UNL1        0.0000
     64 H          18.7620    1.2514   -1.8940 H       1  UNL1        0.0000
     65 H          17.3576    1.2336   -0.8536 H       1  UNL1        0.0000
     66 H          17.3136    0.3773   -5.0610 H       1  UNL1        0.0000
     67 H          16.8587    1.9395   -5.7068 H       1  UNL1        0.0000
     68 H          18.4488    1.7070   -5.0153 H       1  UNL1        0.0000
     69 H          11.8686    0.8306   -2.3818 H       1  UNL1        0.0000
     70 H          11.9083    0.3795   -4.0747 H       1  UNL1        0.0000
     71 H          11.7524   -0.8555   -2.8459 H       1  UNL1        0.0000
     72 H          14.3191   -2.0415   -1.4784 H       1  UNL1        0.0000
     73 H          15.6338   -0.9376   -1.1449 H       1  UNL1        0.0000
     74 H          14.0246   -0.5997   -0.5340 H       1  UNL1        0.0000
     75 H          14.1776   -2.0024   -4.5757 H       1  UNL1        0.0000
     76 H          14.7077   -0.5515   -5.3984 H       1  UNL1        0.0000
     77 H          15.8006   -1.4025   -4.3248 H       1  UNL1        0.0000
     78 H          11.8917    8.8116   -1.7732 H       1  UNL1        0.0000
     79 H          12.2789    9.3911   -3.3791 H       1  UNL1        0.0000
     80 H          10.7829    8.5243   -3.0990 H       1  UNL1        0.0000
     81 H          15.0938    6.1270   -2.8836 H       1  UNL1        0.0000
     82 H          15.0731    7.8357   -3.2799 H       1  UNL1        0.0000
     83 H          14.6686    7.3034   -1.6579 H       1  UNL1        0.0000
     84 H          11.5816    6.5048   -5.3995 H       1  UNL1        0.0000
     85 H          13.0982    7.3461   -5.6277 H       1  UNL1        0.0000
     86 H          13.0990    5.6243   -5.3286 H       1  UNL1        0.0000
     87 H           8.8738    6.6195   -2.1936 H       1  UNL1        0.0000
     88 H           9.2425    6.6045   -3.9070 H       1  UNL1        0.0000
     89 H           8.0358    5.5141   -3.2597 H       1  UNL1        0.0000
     90 H           8.9736    2.8357   -1.6484 H       1  UNL1        0.0000
     91 H          10.6113    2.8482   -1.0195 H       1  UNL1        0.0000
     92 H           9.4505    4.0446   -0.4778 H       1  UNL1        0.0000
     93 H           9.5792    3.2574   -4.6733 H       1  UNL1        0.0000
     94 H          10.9995    4.1636   -5.1409 H       1  UNL1        0.0000
     95 H          11.1605    2.7276   -4.1456 H       1  UNL1        0.0000
@<TRIPOS>BOND
     1    67    26    1
     2    85    32    1
     3    84    32    1
     4    76    29    1
     5    86    32    1
     6    94    35    1
     7    32     6    1
     8    66    26    1
     9    68    26    1
    10    26     4    1
    11    93    35    1
    12    75    29    1
    13    29    77    1
    14    29     5    1
    15    35    95    1
    16    35     7    1
    17    40    16    1
    18    70    27    1
    19    88    33    1
    20    61    24    1
    21    38    13    1
    22    79    30    1
    23    82    31    1
    24    89    33    1
    25     6    30    1
    26     6    31    1
    27     6    17    1
    28     4    16    1
    29     4    24    1
    30     4    25    1
    31    16     5    1
    32    16    12    1
    33    80    30    1
    34    27     5    1
    35    27    71    1
    36    27    69    1
    37    33     7    1
    38    33    87    1
    39     5    28    1
    40    24    60    1
    41    24    62    1
    42    81    31    1
    43    30    78    1
    44     7    17    1
    45     7    34    1
    46    31    83    1
    47    13    12   ar
    48    13    14   ar
    49    12    11   ar
    50    17    14    1
    51    17    41    1
    52    63    25    1
    53    64    25    1
    54    25    65    1
    55    90    34    1
    56    14     9   ar
    57    72    28    1
    58    28    73    1
    59    28    74    1
    60    34    91    1
    61    34    92    1
    62    11    37    1
    63    11    10   ar
    64     9    10   ar
    65     9     8    1
    66    10    15    1
    67    49    20    1
    68    58    23    1
    69    50    20    1
    70     1     8    1
    71     8    36    1
    72    20    48    1
    73    20     2    1
    74    23    59    1
    75    23    57    1
    76    23     3    1
    77    39    15    1
    78    15     2    1
    79    15     3    1
    80    52    21    1
    81     2    19    1
    82     2    18    1
    83     3    21    1
    84     3    22    1
    85    21    53    1
    86    21    51    1
    87    46    19    1
    88    43    18    1
    89    19    47    1
    90    19    45    1
    91    18    44    1
    92    18    42    1
    93    22    55    1
    94    22    54    1
    95    22    56    1
