@<TRIPOS>MOLECULE
1
 93 94 0 0 0
SMALL
GASTEIGER

@<TRIPOS>ATOM
      1 SE          8.0498    2.0721   14.9264 Se      1  UNL1        0.0000
      2 SI          5.6749    4.2893   16.4986 Si      1  UNL1        0.0000
      3 SI          7.0705    6.4011   11.5559 Si      1  UNL1        0.0000
      4 SI          4.7741    4.0341   11.4650 Si      1  UNL1        0.0000
      5 SI         10.2829    1.2831   17.8249 Si      1  UNL1        0.0000
      6 SI         12.8509    4.3448   14.3442 Si      1  UNL1        0.0000
      7 SI         11.0466    6.3655   16.2268 Si      1  UNL1        0.0000
      8 C           7.1863    3.7909   12.7077 C.2     1  UNL1        0.0000
      9 H           7.7731    3.2969   11.9538 H       1  UNL1        0.0000
     10 C           7.1468    3.5011   14.0308 C.2     1  UNL1        0.0000
     11 C           6.2281    4.3924   14.7004 C.2     1  UNL1        0.0000
     12 C           5.7249    5.2184   13.7480 C.2     1  UNL1        0.0000
     13 H           5.0119    6.0039   13.9151 H       1  UNL1        0.0000
     14 C           6.2514    4.8861   12.4143 C.3     1  UNL1        0.0000
     15 C          10.1201    4.1107   14.8104 C.2     1  UNL1        0.0000
     16 H           9.7086    4.5772   13.9357 H       1  UNL1        0.0000
     17 C           9.6309    3.0193   15.4436 C.2     1  UNL1        0.0000
     18 C          10.4544    2.6964   16.5865 C.2     1  UNL1        0.0000
     19 C          11.4404    3.6286   16.6195 C.2     1  UNL1        0.0000
     20 H          12.2287    3.6723   17.3479 H       1  UNL1        0.0000
     21 C          11.3223    4.5909   15.5103 C.3     1  UNL1        0.0000
     22 C           7.0063    3.6769   17.7193 C.3     1  UNL1        0.0000
     23 H           8.0100    3.8979   17.3721 H       1  UNL1        0.0000
     24 H           6.9389    2.6007   17.8444 H       1  UNL1        0.0000
     25 H           6.8818    4.1334   18.6970 H       1  UNL1        0.0000
     26 C           4.2028    3.0692   16.5712 C.3     1  UNL1        0.0000
     27 H           4.4867    2.0990   16.1726 H       1  UNL1        0.0000
     28 H           3.3575    3.4280   15.9920 H       1  UNL1        0.0000
     29 H           3.8618    2.9197   17.5912 H       1  UNL1        0.0000
     30 C           5.0969    6.0285   17.0360 C.3     1  UNL1        0.0000
     31 H           5.9028    6.7531   16.9817 H       1  UNL1        0.0000
     32 H           4.7363    6.0135   18.0594 H       1  UNL1        0.0000
     33 H           4.2862    6.3883   16.4116 H       1  UNL1        0.0000
     34 C           5.9562    7.9379   11.7330 C.3     1  UNL1        0.0000
     35 H           4.9650    7.7799   11.3243 H       1  UNL1        0.0000
     36 H           6.3939    8.7820   11.2093 H       1  UNL1        0.0000
     37 H           5.8429    8.2246   12.7735 H       1  UNL1        0.0000
     38 C           7.4382    6.0679    9.7165 C.3     1  UNL1        0.0000
     39 H           6.5339    6.0617    9.1175 H       1  UNL1        0.0000
     40 H           7.9382    5.1161    9.5715 H       1  UNL1        0.0000
     41 H           8.0883    6.8401    9.3167 H       1  UNL1        0.0000
     42 C           8.7131    6.7682   12.4527 C.3     1  UNL1        0.0000
     43 H           8.5850    6.7535   13.5310 H       1  UNL1        0.0000
     44 H           9.0926    7.7480   12.1770 H       1  UNL1        0.0000
     45 H           9.4757    6.0402   12.1942 H       1  UNL1        0.0000
     46 C           3.4372    5.3334   11.0644 C.3     1  UNL1        0.0000
     47 H           3.1651    5.9199   11.9352 H       1  UNL1        0.0000
     48 H           2.5381    4.8397   10.7106 H       1  UNL1        0.0000
     49 H           3.7582    6.0169   10.2857 H       1  UNL1        0.0000
     50 C           5.3772    3.2496    9.8353 C.3     1  UNL1        0.0000
     51 H           5.3410    3.9533    9.0105 H       1  UNL1        0.0000
     52 H           4.7441    2.4086    9.5709 H       1  UNL1        0.0000
     53 H           6.3922    2.8749    9.9047 H       1  UNL1        0.0000
     54 C           4.0217    2.7249   12.6270 C.3     1  UNL1        0.0000
     55 H           3.3587    3.1788   13.3569 H       1  UNL1        0.0000
     56 H           4.7917    2.1936   13.1786 H       1  UNL1        0.0000
     57 H           3.4494    1.9880   12.0723 H       1  UNL1        0.0000
     58 C          11.9741    0.4051   17.9631 C.3     1  UNL1        0.0000
     59 H          12.7577    1.1060   18.2340 H       1  UNL1        0.0000
     60 H          12.2635   -0.0658   17.0297 H       1  UNL1        0.0000
     61 H          11.9493   -0.3675   18.7257 H       1  UNL1        0.0000
     62 C           9.8638    2.0206   19.5387 C.3     1  UNL1        0.0000
     63 H           8.8986    2.5148   19.5473 H       1  UNL1        0.0000
     64 H          10.6095    2.7513   19.8359 H       1  UNL1        0.0000
     65 H           9.8447    1.2454   20.2984 H       1  UNL1        0.0000
     66 C           8.9556   -0.0017   17.3571 C.3     1  UNL1        0.0000
     67 H           7.9516    0.4069   17.4350 H       1  UNL1        0.0000
     68 H           9.0087   -0.8693   18.0084 H       1  UNL1        0.0000
     69 H           9.0908   -0.3543   16.3362 H       1  UNL1        0.0000
     70 C          13.0835    2.4763   14.0673 C.3     1  UNL1        0.0000
     71 H          13.2212    1.9436   15.0029 H       1  UNL1        0.0000
     72 H          13.9454    2.2731   13.4388 H       1  UNL1        0.0000
     73 H          12.2143    2.0484   13.5754 H       1  UNL1        0.0000
     74 C          14.4082    5.0547   15.1856 C.3     1  UNL1        0.0000
     75 H          14.3506    6.1306   15.3107 H       1  UNL1        0.0000
     76 H          15.2879    4.8425   14.5869 H       1  UNL1        0.0000
     77 H          14.5687    4.6140   16.1639 H       1  UNL1        0.0000
     78 C          12.5733    5.1811   12.6546 C.3     1  UNL1        0.0000
     79 H          12.2960    6.2252   12.7391 H       1  UNL1        0.0000
     80 H          11.7957    4.6731   12.0943 H       1  UNL1        0.0000
     81 H          13.4811    5.1303   12.0611 H       1  UNL1        0.0000
     82 C           9.2167    6.5428   16.7377 C.3     1  UNL1        0.0000
     83 H           8.5421    6.1609   15.9773 H       1  UNL1        0.0000
     84 H           8.9615    7.5832   16.9161 H       1  UNL1        0.0000
     85 H           9.0120    5.9965   17.6524 H       1  UNL1        0.0000
     86 C          12.1395    6.6066   17.7720 C.3     1  UNL1        0.0000
     87 H          13.1872    6.4172   17.5658 H       1  UNL1        0.0000
     88 H          11.8363    5.9450   18.5770 H       1  UNL1        0.0000
     89 H          12.0585    7.6250   18.1390 H       1  UNL1        0.0000
     90 C          11.4664    7.7409   14.9730 C.3     1  UNL1        0.0000
     91 H          12.5155    7.7351   14.6974 H       1  UNL1        0.0000
     92 H          11.2500    8.7121   15.4073 H       1  UNL1        0.0000
     93 H          10.8809    7.6555   14.0648 H       1  UNL1        0.0000
@<TRIPOS>BOND
     1    51    50    1
     2    39    38    1
     3    41    38    1
     4    52    50    1
     5    40    38    1
     6    38     3    1
     7    50    53    1
     8    50     4    1
     9    49    46    1
    10    48    46    1
    11    46     4    1
    12    46    47    1
    13    36    34    1
    14    35    34    1
    15     4    14    1
    16     4    54    1
    17     3    34    1
    18     3    14    1
    19     3    42    1
    20    34    37    1
    21     9     8    1
    22    81    78    1
    23    57    54    1
    24    80    78    1
    25    44    42    1
    26    45    42    1
    27    14     8    1
    28    14    12    1
    29    42    43    1
    30    54    56    1
    31    54    55    1
    32    78    79    1
    33    78     6    1
    34     8    10    2
    35    72    70    1
    36    73    70    1
    37    12    13    1
    38    12    11    2
    39    16    15    1
    40    10    11    1
    41    10     1    1
    42    93    90    1
    43    70     6    1
    44    70    71    1
    45     6    74    1
    46     6    21    1
    47    76    74    1
    48    91    90    1
    49    11     2    1
    50    15    17    2
    51    15    21    1
    52     1    17    1
    53    90    92    1
    54    90     7    1
    55    74    75    1
    56    74    77    1
    57    17    18    1
    58    21     7    1
    59    21    19    1
    60    83    82    1
    61    28    26    1
    62    27    26    1
    63     7    82    1
    64     7    86    1
    65    69    66    1
    66    33    30    1
    67     2    26    1
    68     2    30    1
    69     2    22    1
    70    26    29    1
    71    18    19    2
    72    18     5    1
    73    19    20    1
    74    82    84    1
    75    82    85    1
    76    31    30    1
    77    60    58    1
    78    30    32    1
    79    66    67    1
    80    66     5    1
    81    66    68    1
    82    23    22    1
    83    87    86    1
    84    22    24    1
    85    22    25    1
    86    86    89    1
    87    86    88    1
    88     5    58    1
    89     5    62    1
    90    58    59    1
    91    58    61    1
    92    62    63    1
    93    62    64    1
    94    62    65    1
