@<TRIPOS>MOLECULE
1
 12 12 0 0 0
SMALL
GASTEIGER

@<TRIPOS>ATOM
      1 SE         12.9988    4.2670   46.4502 Se      1  UNL1        0.0000
      2 C          13.9068    5.0537   47.9412 C.ar    1  UNL1        0.0000
      3 C          13.2635    6.0626   48.6443 C.ar    1  UNL1        0.0000
      4 H          12.2749    6.3632   48.3100 H       1  UNL1        0.0000
      5 C          13.8709    6.6283   49.7507 C.ar    1  UNL1        0.0000
      6 H          13.3664    7.4043   50.3116 H       1  UNL1        0.0000
      7 C          15.1245    6.1958   50.1556 C.ar    1  UNL1        0.0000
      8 H          15.5981    6.6398   51.0187 H       1  UNL1        0.0000
      9 C          15.7630    5.1866   49.4532 C.ar    1  UNL1        0.0000
     10 H          16.7376    4.8440   49.7693 H       1  UNL1        0.0000
     11 C          15.1572    4.6098   48.3516 C.ar    1  UNL1        0.0000
     12 H          15.6410    3.8127   47.8064 H       1  UNL1        0.0000
@<TRIPOS>BOND
     1     1     2    1
     2    12    11    1
     3     2    11   ar
     4     2     3   ar
     5     4     3    1
     6    11     9   ar
     7     3     5   ar
     8     9    10    1
     9     9     7   ar
    10     5     7   ar
    11     5     6    1
    12     7     8    1
