@<TRIPOS>MOLECULE
1
 17 16 0 0 0
SMALL
GASTEIGER

@<TRIPOS>ATOM
      1 SE          3.8859    0.1632    4.7863 Se      1  UNL1        0.0000
      2 SI          4.1934    0.3494    7.9001 Si      1  UNL1        0.0000
      3 C           2.9339    0.5276    6.4555 C.3     1  UNL1        0.0000
      4 H           2.5051    1.5284    6.4041 H       1  UNL1        0.0000
      5 H           2.1335   -0.2032    6.5565 H       1  UNL1        0.0000
      6 C           3.2931    0.8434    9.5091 C.3     1  UNL1        0.0000
      7 H           2.4277    0.2148    9.6932 H       1  UNL1        0.0000
      8 H           2.9531    1.8741    9.4848 H       1  UNL1        0.0000
      9 H           3.9588    0.7396   10.3587 H       1  UNL1        0.0000
     10 C           5.6560    1.5214    7.5483 C.3     1  UNL1        0.0000
     11 H           6.4715    1.3663    8.2473 H       1  UNL1        0.0000
     12 H           5.3638    2.5659    7.6097 H       1  UNL1        0.0000
     13 H           6.0344    1.3399    6.5441 H       1  UNL1        0.0000
     14 C           4.7585   -1.4675    7.9369 C.3     1  UNL1        0.0000
     15 H           3.9434   -2.1343    8.2023 H       1  UNL1        0.0000
     16 H           5.5618   -1.6270    8.6490 H       1  UNL1        0.0000
     17 H           5.1177   -1.7608    6.9534 H       1  UNL1        0.0000
@<TRIPOS>BOND
     1     1     3    1
     2     4     3    1
     3     3     5    1
     4     3     2    1
     5    13    10    1
     6    17    14    1
     7    10    12    1
     8    10     2    1
     9    10    11    1
    10     2    14    1
    11     2     6    1
    12    14    15    1
    13    14    16    1
    14     8     6    1
    15     6     7    1
    16     6     9    1
