@<TRIPOS>MOLECULE
1
 95 95 0 0 0
SMALL
GASTEIGER

@<TRIPOS>ATOM
      1 SE          3.3736   10.9260    5.0973 Se      1  UNL1        0.0000
      2 SI          5.2313   13.2459    7.7490 Si      1  UNL1        0.0000
      3 SI          5.0452   10.3841    9.4439 Si      1  UNL1        0.0000
      4 SI         10.6844   12.3254    7.7933 Si      1  UNL1        0.0000
      5 SI         10.3583    9.2383    8.9441 Si      1  UNL1        0.0000
      6 SI          8.1075   10.1921    2.2890 Si      1  UNL1        0.0000
      7 SI          7.9036    7.2407    3.8360 Si      1  UNL1        0.0000
      8 C           5.1164   10.5231    4.8362 C.3     1  UNL1        0.0000
      9 C           6.2625   10.3512    5.6370 C.ar    1  UNL1        0.0000
     10 C           6.4084   10.8127    6.9820 C.ar    1  UNL1        0.0000
     11 C           7.6681   10.8470    7.5511 C.ar    1  UNL1        0.0000
     12 C           8.8082   10.4113    6.8829 C.ar    1  UNL1        0.0000
     13 C           8.6410    9.8662    5.6139 C.ar    1  UNL1        0.0000
     14 C           7.4126    9.7841    4.9910 C.ar    1  UNL1        0.0000
     15 C           5.2601   11.3117    7.7668 C.3     1  UNL1        0.0000
     16 C          10.1591   10.4918    7.4870 C.3     1  UNL1        0.0000
     17 C           7.3473    9.0860    3.6832 C.3     1  UNL1        0.0000
     18 C           3.5095   13.7954    8.3515 C.3     1  UNL1        0.0000
     19 C           6.5796   14.0593    8.8251 C.3     1  UNL1        0.0000
     20 C           5.5030   13.8442    5.9566 C.3     1  UNL1        0.0000
     21 C           3.1719   10.2935    9.7841 C.3     1  UNL1        0.0000
     22 C           5.8739   11.2058   10.9555 C.3     1  UNL1        0.0000
     23 C           5.6925    8.6041    9.1950 C.3     1  UNL1        0.0000
     24 C          10.2958   12.9642    9.5473 C.3     1  UNL1        0.0000
     25 C          12.5703   12.4389    7.5237 C.3     1  UNL1        0.0000
     26 C           9.8245   13.4181    6.4865 C.3     1  UNL1        0.0000
     27 C           9.3216    9.5880   10.5031 C.3     1  UNL1        0.0000
     28 C          12.1995    9.2059    9.4423 C.3     1  UNL1        0.0000
     29 C           9.8574    7.5234    8.2689 C.3     1  UNL1        0.0000
     30 C           8.1014   12.0060    2.8785 C.3     1  UNL1        0.0000
     31 C           9.8985    9.7108    1.8466 C.3     1  UNL1        0.0000
     32 C           6.9970   10.0059    0.7515 C.3     1  UNL1        0.0000
     33 C           6.8353    6.5198    5.2446 C.3     1  UNL1        0.0000
     34 C           9.7384    6.9066    4.2376 C.3     1  UNL1        0.0000
     35 C           7.4736    6.4029    2.1801 C.3     1  UNL1        0.0000
     36 H           5.3174   10.4001    3.7777 H       1  UNL1        0.0000
     37 H           7.7668   11.2368    8.5505 H       1  UNL1        0.0000
     38 H           9.5018    9.4830    5.0896 H       1  UNL1        0.0000
     39 H           4.3470   11.0404    7.2377 H       1  UNL1        0.0000
     40 H          10.8650   10.1270    6.7330 H       1  UNL1        0.0000
     41 H           6.3061    8.9519    3.3897 H       1  UNL1        0.0000
     42 H           3.3627   14.8580    8.1865 H       1  UNL1        0.0000
     43 H           2.7246   13.2689    7.8175 H       1  UNL1        0.0000
     44 H           3.3743   13.6091    9.4117 H       1  UNL1        0.0000
     45 H           7.5767   13.8211    8.4720 H       1  UNL1        0.0000
     46 H           6.4736   15.1395    8.7900 H       1  UNL1        0.0000
     47 H           6.5096   13.7624    9.8648 H       1  UNL1        0.0000
     48 H           6.3702   13.3715    5.5045 H       1  UNL1        0.0000
     49 H           4.6441   13.6133    5.3312 H       1  UNL1        0.0000
     50 H           5.6560   14.9184    5.9148 H       1  UNL1        0.0000
     51 H           2.7472   11.2758    9.9592 H       1  UNL1        0.0000
     52 H           2.6427    9.8559    8.9435 H       1  UNL1        0.0000
     53 H           2.9595    9.6855   10.6578 H       1  UNL1        0.0000
     54 H           5.8497   10.5335   11.8080 H       1  UNL1        0.0000
     55 H           6.9104   11.4723   10.7832 H       1  UNL1        0.0000
     56 H           5.3429   12.1082   11.2413 H       1  UNL1        0.0000
     57 H           5.6464    8.0272   10.1137 H       1  UNL1        0.0000
     58 H           5.0902    8.0868    8.4541 H       1  UNL1        0.0000
     59 H           6.7191    8.5876    8.8432 H       1  UNL1        0.0000
     60 H          10.9224   12.4785   10.2884 H       1  UNL1        0.0000
     61 H          10.4884   14.0311    9.6101 H       1  UNL1        0.0000
     62 H           9.2611   12.8061    9.8303 H       1  UNL1        0.0000
     63 H          13.1165   11.8228    8.2294 H       1  UNL1        0.0000
     64 H          12.8507   12.1200    6.5246 H       1  UNL1        0.0000
     65 H          12.9163   13.4603    7.6470 H       1  UNL1        0.0000
     66 H           9.9876   14.4738    6.6805 H       1  UNL1        0.0000
     67 H          10.2092   13.2084    5.4926 H       1  UNL1        0.0000
     68 H           8.7525   13.2485    6.4622 H       1  UNL1        0.0000
     69 H           9.4996   10.5796   10.9029 H       1  UNL1        0.0000
     70 H           8.2588    9.4871   10.3155 H       1  UNL1        0.0000
     71 H           9.5818    8.8760   11.2813 H       1  UNL1        0.0000
     72 H          12.4022    8.3693   10.1032 H       1  UNL1        0.0000
     73 H          12.8509    9.1049    8.5804 H       1  UNL1        0.0000
     74 H          12.4853   10.1108    9.9681 H       1  UNL1        0.0000
     75 H           8.9126    7.5699    7.7354 H       1  UNL1        0.0000
     76 H          10.6020    7.1326    7.5819 H       1  UNL1        0.0000
     77 H           9.7463    6.7992    9.0699 H       1  UNL1        0.0000
     78 H           8.6591   12.1252    3.8026 H       1  UNL1        0.0000
     79 H           8.5461   12.6614    2.1356 H       1  UNL1        0.0000
     80 H           7.0926   12.3633    3.0598 H       1  UNL1        0.0000
     81 H           9.9647    8.6879    1.4919 H       1  UNL1        0.0000
     82 H          10.2743   10.3543    1.0572 H       1  UNL1        0.0000
     83 H          10.5673    9.8166    2.6946 H       1  UNL1        0.0000
     84 H           6.0039   10.4127    0.9251 H       1  UNL1        0.0000
     85 H           7.4157   10.5338   -0.0995 H       1  UNL1        0.0000
     86 H           6.8761    8.9660    0.4661 H       1  UNL1        0.0000
     87 H           6.9649    7.0838    6.1640 H       1  UNL1        0.0000
     88 H           5.7801    6.5548    4.9909 H       1  UNL1        0.0000
     89 H           7.0877    5.4849    5.4536 H       1  UNL1        0.0000
     90 H           9.9515    5.8490    4.1124 H       1  UNL1        0.0000
     91 H          10.4125    7.4513    3.5864 H       1  UNL1        0.0000
     92 H           9.9784    7.1655    5.2629 H       1  UNL1        0.0000
     93 H           6.4439    6.5949    1.8972 H       1  UNL1        0.0000
     94 H           8.1079    6.7569    1.3737 H       1  UNL1        0.0000
     95 H           7.5981    5.3267    2.2449 H       1  UNL1        0.0000
@<TRIPOS>BOND
     1    85    32    1
     2    86    32    1
     3    32    84    1
     4    32     6    1
     5    82    31    1
     6    94    35    1
     7    81    31    1
     8    31     6    1
     9    31    83    1
    10    93    35    1
    11    79    30    1
    12    35    95    1
    13    35     7    1
    14     6    30    1
    15     6    17    1
    16    30    80    1
    17    30    78    1
    18    41    17    1
    19    91    34    1
    20    17     7    1
    21    17    14    1
    22    36     8    1
    23     7    34    1
    24     7    33    1
    25    90    34    1
    26    34    92    1
    27     8     1    1
    28     8     9    1
    29    88    33    1
    30    14    13   ar
    31    14     9   ar
    32    38    13    1
    33    33    89    1
    34    33    87    1
    35    49    20    1
    36    67    26    1
    37    48    20    1
    38    13    12   ar
    39     9    10   ar
    40    50    20    1
    41    20     2    1
    42    68    26    1
    43    26    66    1
    44    26     4    1
    45    64    25    1
    46    40    16    1
    47    12    16    1
    48    12    11   ar
    49    10    11   ar
    50    10    15    1
    51    39    15    1
    52    16     4    1
    53    16     5    1
    54    25    65    1
    55    25     4    1
    56    25    63    1
    57    11    37    1
    58    76    29    1
    59    75    29    1
    60     2    15    1
    61     2    18    1
    62     2    19    1
    63    15     3    1
    64     4    24    1
    65    43    18    1
    66    42    18    1
    67    29     5    1
    68    29    77    1
    69    18    44    1
    70    58    23    1
    71    45    19    1
    72    73    28    1
    73    46    19    1
    74    19    47    1
    75    59    23    1
    76    52    21    1
    77     5    28    1
    78     5    27    1
    79    23     3    1
    80    23    57    1
    81    28    74    1
    82    28    72    1
    83     3    21    1
    84     3    22    1
    85    24    61    1
    86    24    62    1
    87    24    60    1
    88    21    51    1
    89    21    53    1
    90    70    27    1
    91    27    69    1
    92    27    71    1
    93    55    22    1
    94    22    56    1
    95    22    54    1
