@<TRIPOS>MOLECULE
1,2,15
 41 41 0 0 0
SMALL
GASTEIGER

@<TRIPOS>ATOM
      1 C           6.2845   18.4458   13.9901 C.2     1  UNL1        0.0000
      2 C           6.5581   18.7958   15.1639 C.1     1  UNL1        0.0000
      3 C           7.1541   19.5638   16.1880 C.2     1  UNL1        0.0000
      4 C           7.3619   20.9411   16.0802 C.3     1  UNL1        0.0000
      5 H           7.0721   21.4520   15.1731 H       1  UNL1        0.0000
      6 C           7.9301   21.6368   17.1297 C.2     1  UNL1        0.0000
      7 H           8.0855   22.7029   17.0445 H       1  UNL1        0.0000
      8 C           8.3019   20.9760   18.2899 C.2     1  UNL1        0.0000
      9 H           8.7447   21.5269   19.1066 H       1  UNL1        0.0000
     10 C           8.1043   19.6066   18.4011 C.2     1  UNL1        0.0000
     11 H           8.3963   19.0926   19.3058 H       1  UNL1        0.0000
     12 C           7.5293   18.9037   17.3634 C.2     1  UNL1        0.0000
     13 H           7.3540   17.8390   17.4191 H       1  UNL1        0.0000
     14 N           5.5830   16.7300   12.0778 N.3     1  UNL1        0.0000
     15 B           5.7507   17.2243   13.3618 B       1  UNL1        0.0000
     16 SI          5.4575   15.0054   11.7099 Si      1  UNL1        0.0000
     17 C           5.4213   14.0100   13.3209 C.3     1  UNL1        0.0000
     18 H           6.3994   13.6005   13.5467 H       1  UNL1        0.0000
     19 H           4.7245   13.1798   13.2779 H       1  UNL1        0.0000
     20 H           5.1526   14.6602   14.1467 H       1  UNL1        0.0000
     21 C           3.8740   14.6770   10.6884 C.3     1  UNL1        0.0000
     22 H           3.1099   15.4272   10.8599 H       1  UNL1        0.0000
     23 H           3.4474   13.7119   10.9440 H       1  UNL1        0.0000
     24 H           4.0847   14.6588    9.6249 H       1  UNL1        0.0000
     25 C           7.0146   14.5068   10.7240 C.3     1  UNL1        0.0000
     26 H           7.1172   15.0591    9.7961 H       1  UNL1        0.0000
     27 H           6.9920   13.4501   10.4757 H       1  UNL1        0.0000
     28 H           7.9097   14.6859   11.3122 H       1  UNL1        0.0000
     29 SI          5.7870   17.9684   10.8154 Si      1  UNL1        0.0000
     30 C           5.1810   17.3772    9.1105 C.3     1  UNL1        0.0000
     31 H           5.6986   16.4905    8.7658 H       1  UNL1        0.0000
     32 H           5.3554   18.1598    8.3791 H       1  UNL1        0.0000
     33 H           4.1185   17.1628    9.1077 H       1  UNL1        0.0000
     34 C           4.7230   19.4796   11.2843 C.3     1  UNL1        0.0000
     35 H           3.6617   19.2515   11.2488 H       1  UNL1        0.0000
     36 H           4.8990   20.3057   10.6027 H       1  UNL1        0.0000
     37 H           4.9558   19.8197   12.2872 H       1  UNL1        0.0000
     38 C           7.6342   18.4290   10.7387 C.3     1  UNL1        0.0000
     39 H           7.9960   18.7037   11.7247 H       1  UNL1        0.0000
     40 H           7.8109   19.2676   10.0728 H       1  UNL1        0.0000
     41 H           8.2380   17.5974   10.3890 H       1  UNL1        0.0000
@<TRIPOS>BOND
     1    32    30    1
     2    31    30    1
     3    33    30    1
     4    30    29    1
     5    24    21    1
     6    26    25    1
     7    40    38    1
     8    41    38    1
     9    27    25    1
    10    36    34    1
    11    21    22    1
    12    21    23    1
    13    21    16    1
    14    25    28    1
    15    25    16    1
    16    38    29    1
    17    38    39    1
    18    29    34    1
    19    29    14    1
    20    35    34    1
    21    34    37    1
    22    16    14    1
    23    16    17    1
    24    14    15    1
    25    19    17    1
    26    17    18    1
    27    17    20    1
    28    15     1    1
    29     1     2    2
    30     2     3    2
    31     5     4    1
    32     4     3    1
    33     4     6    1
    34     3    12    1
    35     7     6    1
    36     6     8    2
    37    12    13    1
    38    12    10    2
    39     8    10    1
    40     8     9    1
    41    10    11    1
