@<TRIPOS>MOLECULE
2,3,4
 31 31 0 0 0
SMALL
GASTEIGER

@<TRIPOS>ATOM
      1 O           3.7243    5.6736   10.9296 O.2     1  UNL1        0.0000
      2 C           4.1676    6.5335   11.6232 C.2     1  UNL1        0.0000
      3 B           4.3327    7.2656   12.8862 B       1  UNL1        0.0000
      4 C           4.9749    8.6848   13.2011 C.3     1  UNL1        0.0000
      5 SI          4.9881   10.5548   13.0594 Si      1  UNL1        0.0000
      6 C           5.4010   11.0187   11.2667 C.3     1  UNL1        0.0000
      7 H           6.0596   10.2724   10.8380 H       1  UNL1        0.0000
      8 H           5.8747   11.9917   11.1891 H       1  UNL1        0.0000
      9 H           4.5070   11.0416   10.6550 H       1  UNL1        0.0000
     10 C           6.2285   11.3945   14.2501 C.3     1  UNL1        0.0000
     11 H           6.5384   10.7303   15.0485 H       1  UNL1        0.0000
     12 H           5.7852   12.2724   14.7115 H       1  UNL1        0.0000
     13 H           7.1222   11.7198   13.7275 H       1  UNL1        0.0000
     14 C           3.2121   11.0989   13.5136 C.3     1  UNL1        0.0000
     15 H           2.9880   10.8924   14.5553 H       1  UNL1        0.0000
     16 H           2.4817   10.5702   12.9095 H       1  UNL1        0.0000
     17 H           3.0690   12.1625   13.3493 H       1  UNL1        0.0000
     18 C           4.7720    7.7834   14.2099 C.3     1  UNL1        0.0000
     19 SI          4.6637    7.6296   16.0746 Si      1  UNL1        0.0000
     20 C           2.8738    8.0563   16.5821 C.3     1  UNL1        0.0000
     21 H           2.6242    9.0823   16.3298 H       1  UNL1        0.0000
     22 H           2.7256    7.9350   17.6511 H       1  UNL1        0.0000
     23 H           2.1619    7.4129   16.0749 H       1  UNL1        0.0000
     24 C           5.0578    5.8215   16.5455 C.3     1  UNL1        0.0000
     25 H           6.1189    5.6050   16.4657 H       1  UNL1        0.0000
     26 H           4.5291    5.1254   15.9016 H       1  UNL1        0.0000
     27 H           4.7612    5.6106   17.5690 H       1  UNL1        0.0000
     28 C           5.8797    8.7852   16.9873 C.3     1  UNL1        0.0000
     29 H           6.8867    8.7159   16.5858 H       1  UNL1        0.0000
     30 H           5.9366    8.5257   18.0409 H       1  UNL1        0.0000
     31 H           5.5654    9.8223   16.9247 H       1  UNL1        0.0000
@<TRIPOS>BOND
     1     9     6    1
     2     7     6    1
     3     1     2    2
     4     8     6    1
     5     6     5    1
     6     2     3    1
     7     3     4    1
     8     3    18    1
     9    16    14    1
    10     5     4    1
    11     5    14    1
    12     5    10    1
    13     4    18    1
    14    17    14    1
    15    14    15    1
    16    13    10    1
    17    18    19    1
    18    10    12    1
    19    10    11    1
    20    26    24    1
    21    19    24    1
    22    19    20    1
    23    19    28    1
    24    23    20    1
    25    21    20    1
    26    25    24    1
    27    24    27    1
    28    20    22    1
    29    29    28    1
    30    31    28    1
    31    28    30    1
