@<TRIPOS>MOLECULE
3,4,5
 82 83 0 0 0
SMALL
GASTEIGER

@<TRIPOS>ATOM
      1 B           0.7770    0.6393    9.8427 B       1  UNL1        0.0000
      2 C           1.0024    0.0447    8.4680 C.2     1  UNL1        0.0000
      3 C           2.3965    0.1036    8.1414 C.3     1  UNL1        0.0000
      4 B           2.9876    1.0674    9.1515 B       1  UNL1        0.0000
      5 C           2.1278    0.8154   10.6265 C.3     1  UNL1        0.0000
      6 O           2.4510    1.3221   11.6841 O.3     1  UNL1        0.0000
      7 C          -0.5472    1.1473   10.5252 C.ar    1  UNL1        0.0000
      8 C          -1.3083    0.3099   11.3494 C.ar    1  UNL1        0.0000
      9 C          -2.4601    0.7923   11.9708 C.ar    1  UNL1        0.0000
     10 C          -2.8504    2.1031   11.7486 C.ar    1  UNL1        0.0000
     11 H          -3.7476    2.4745   12.2252 H       1  UNL1        0.0000
     12 C          -2.1191    2.9506   10.9323 C.ar    1  UNL1        0.0000
     13 C          -0.9563    2.4720   10.3301 C.ar    1  UNL1        0.0000
     14 C          -0.9036   -1.1187   11.5760 C.3     1  UNL1        0.0000
     15 H          -0.5793   -1.2595   12.6069 H       1  UNL1        0.0000
     16 H          -0.0815   -1.4013   10.9194 H       1  UNL1        0.0000
     17 H          -1.7417   -1.7916   11.3988 H       1  UNL1        0.0000
     18 C          -3.2784   -0.0871   12.8690 C.3     1  UNL1        0.0000
     19 H          -3.7024   -0.9228   12.3115 H       1  UNL1        0.0000
     20 H          -4.0953    0.4756   13.3143 H       1  UNL1        0.0000
     21 H          -2.6641   -0.4989   13.6685 H       1  UNL1        0.0000
     22 C          -2.5807    4.3612   10.7126 C.3     1  UNL1        0.0000
     23 H          -3.5295    4.5351   11.2143 H       1  UNL1        0.0000
     24 H          -2.7083    4.5664    9.6501 H       1  UNL1        0.0000
     25 H          -1.8517    5.0714   11.1032 H       1  UNL1        0.0000
     26 C          -0.1550    3.3930    9.4520 C.3     1  UNL1        0.0000
     27 H          -0.7149    3.6394    8.5480 H       1  UNL1        0.0000
     28 H           0.7862    2.9346    9.1611 H       1  UNL1        0.0000
     29 H           0.0578    4.3266    9.9723 H       1  UNL1        0.0000
     30 SI         -0.3679   -0.5778    7.3241 Si      1  UNL1        0.0000
     31 C          -2.0962   -0.2444    8.0599 C.3     1  UNL1        0.0000
     32 H          -2.2234    0.7974    8.3320 H       1  UNL1        0.0000
     33 H          -2.2732   -0.8311    8.9537 H       1  UNL1        0.0000
     34 H          -2.8727   -0.4955    7.3427 H       1  UNL1        0.0000
     35 C          -0.3042    0.3544    5.6528 C.3     1  UNL1        0.0000
     36 H          -0.8527   -0.1867    4.8874 H       1  UNL1        0.0000
     37 H           0.7076    0.5001    5.2941 H       1  UNL1        0.0000
     38 H          -0.7616    1.3352    5.7453 H       1  UNL1        0.0000
     39 C          -0.2634   -2.4718    7.0589 C.3     1  UNL1        0.0000
     40 H          -0.1870   -2.9983    8.0059 H       1  UNL1        0.0000
     41 H           0.5849   -2.7628    6.4513 H       1  UNL1        0.0000
     42 H          -1.1595   -2.8306    6.5611 H       1  UNL1        0.0000
     43 SI          3.3481   -1.0937    7.0329 Si      1  UNL1        0.0000
     44 C           3.1009   -2.8079    7.8686 C.3     1  UNL1        0.0000
     45 H           2.7883   -3.5822    7.1771 H       1  UNL1        0.0000
     46 H           2.3367   -2.7477    8.6538 H       1  UNL1        0.0000
     47 H           4.0187   -3.1467    8.3377 H       1  UNL1        0.0000
     48 C           2.9230   -1.2357    5.1745 C.3     1  UNL1        0.0000
     49 H           3.5662   -1.9807    4.7148 H       1  UNL1        0.0000
     50 H           3.0881   -0.3016    4.6472 H       1  UNL1        0.0000
     51 H           1.8966   -1.5362    5.0009 H       1  UNL1        0.0000
     52 C           5.1886   -0.6110    7.1642 C.3     1  UNL1        0.0000
     53 H           5.4384   -0.3406    8.1843 H       1  UNL1        0.0000
     54 H           5.4188    0.2387    6.5320 H       1  UNL1        0.0000
     55 H           5.8385   -1.4269    6.8655 H       1  UNL1        0.0000
     56 N           3.7578    2.2235    9.1765 N.3     1  UNL1        0.0000
     57 SI          3.8511    3.2522    7.7338 Si      1  UNL1        0.0000
     58 SI          4.5128    2.7618   10.7193 Si      1  UNL1        0.0000
     59 C           2.6519    2.6430    6.3856 C.3     1  UNL1        0.0000
     60 H           2.9859    1.7109    5.9456 H       1  UNL1        0.0000
     61 H           2.5866    3.3785    5.5895 H       1  UNL1        0.0000
     62 H           1.6505    2.4846    6.7691 H       1  UNL1        0.0000
     63 C           3.2785    5.0151    8.1900 C.3     1  UNL1        0.0000
     64 H           2.2003    5.0592    8.3097 H       1  UNL1        0.0000
     65 H           3.5451    5.7137    7.4026 H       1  UNL1        0.0000
     66 H           3.7226    5.3709    9.1117 H       1  UNL1        0.0000
     67 C           5.6148    3.2314    6.9990 C.3     1  UNL1        0.0000
     68 H           6.1597    4.1374    7.2396 H       1  UNL1        0.0000
     69 H           5.5748    3.1589    5.9163 H       1  UNL1        0.0000
     70 H           6.1970    2.3929    7.3651 H       1  UNL1        0.0000
     71 C           3.3682    3.9509   11.6799 C.3     1  UNL1        0.0000
     72 H           2.3915    4.0331   11.2161 H       1  UNL1        0.0000
     73 H           3.8010    4.9453   11.7447 H       1  UNL1        0.0000
     74 H           3.2084    3.5900   12.6893 H       1  UNL1        0.0000
     75 C           6.0492    3.7964   10.2364 C.3     1  UNL1        0.0000
     76 H           6.7778    3.2182    9.6806 H       1  UNL1        0.0000
     77 H           6.5351    4.1301   11.1478 H       1  UNL1        0.0000
     78 H           5.8166    4.6800    9.6558 H       1  UNL1        0.0000
     79 C           5.3164    1.3096   11.6509 C.3     1  UNL1        0.0000
     80 H           4.5988    0.5615   11.9621 H       1  UNL1        0.0000
     81 H           5.8113    1.6800   12.5429 H       1  UNL1        0.0000
     82 H           6.0721    0.8229   11.0417 H       1  UNL1        0.0000
@<TRIPOS>BOND
     1    50    48    1
     2    49    48    1
     3    36    35    1
     4    51    48    1
     5    48    43    1
     6    37    35    1
     7    61    59    1
     8    35    38    1
     9    35    30    1
    10    69    67    1
    11    60    59    1
    12    59    62    1
    13    59    57    1
    14    41    39    1
    15    54    52    1
    16    42    39    1
    17    55    52    1
    18    67    68    1
    19    67    70    1
    20    67    57    1
    21    43    52    1
    22    43    44    1
    23    43     3    1
    24    39    30    1
    25    39    40    1
    26    52    53    1
    27    45    44    1
    28    30    31    1
    29    30     2    1
    30    34    31    1
    31    65    63    1
    32    57    63    1
    33    57    56    1
    34    44    47    1
    35    44    46    1
    36    31    32    1
    37    31    33    1
    38     3     2    1
    39     3     4    1
    40    63    64    1
    41    63    66    1
    42     2     1    2
    43    27    26    1
    44     4    56    1
    45     4     5    1
    46    28    26    1
    47    56    58    1
    48    26    29    1
    49    26    13    1
    50    24    22    1
    51    78    75    1
    52    76    75    1
    53     1     7    1
    54     1     5    1
    55    75    58    1
    56    75    77    1
    57    13     7   ar
    58    13    12   ar
    59     7     8   ar
    60     5     6    1
    61    22    12    1
    62    22    25    1
    63    22    23    1
    64    58    79    1
    65    58    71    1
    66    16    14    1
    67    12    10   ar
    68    82    79    1
    69    72    71    1
    70     8    14    1
    71     8     9   ar
    72    17    14    1
    73    14    15    1
    74    79    80    1
    75    79    81    1
    76    71    73    1
    77    71    74    1
    78    10     9   ar
    79    10    11    1
    80     9    18    1
    81    19    18    1
    82    18    20    1
    83    18    21    1
