@<TRIPOS>MOLECULE
1,3,5
 40 40 0 0 0
SMALL
GASTEIGER

@<TRIPOS>ATOM
      1 B           3.2102   14.4835   18.9232 B       1  UNL1        0.0000
      2 H           4.0222   14.2237   19.7465 H       1  UNL1        0.0000
      3 C           3.4628   14.1130   17.4687 C.3     1  UNL1        0.0000
      4 H           4.4207   13.7149   17.1305 H       1  UNL1        0.0000
      5 C           2.4255   14.1371   16.4959 C.3     1  UNL1        0.0000
      6 H           1.6418   14.8749   16.6709 H       1  UNL1        0.0000
      7 SI          2.7509   13.8406   14.6574 Si      1  UNL1        0.0000
      8 C           2.2272   15.6162   19.3548 C.3     1  UNL1        0.0000
      9 N           1.6305   15.6997   20.5666 N.pl3   1  UNL1        0.0000
     10 C           0.8555   16.8332   20.6422 C.2     1  UNL1        0.0000
     11 C           1.0001   17.4880   19.4589 C.2     1  UNL1        0.0000
     12 N           1.8644   16.7377   18.6878 N.pl3   1  UNL1        0.0000
     13 C           1.7563   14.7325   21.6172 C.3     1  UNL1        0.0000
     14 H           2.4576   15.0830   22.3792 H       1  UNL1        0.0000
     15 H           2.1213   13.8042   21.1842 H       1  UNL1        0.0000
     16 H           0.7852   14.5524   22.0754 H       1  UNL1        0.0000
     17 C           0.0424   17.1573   21.8414 C.3     1  UNL1        0.0000
     18 H          -0.4203   18.1331   21.7292 H       1  UNL1        0.0000
     19 H           0.6614   17.1653   22.7377 H       1  UNL1        0.0000
     20 H          -0.7446   16.4150   21.9748 H       1  UNL1        0.0000
     21 C           0.4070   18.7587   18.9698 C.3     1  UNL1        0.0000
     22 H          -0.3264   19.1256   19.6814 H       1  UNL1        0.0000
     23 H          -0.0873   18.6035   18.0120 H       1  UNL1        0.0000
     24 H           1.1720   19.5248   18.8373 H       1  UNL1        0.0000
     25 C           2.4001   17.1974   17.4383 C.3     1  UNL1        0.0000
     26 H           3.2335   16.5564   17.1601 H       1  UNL1        0.0000
     27 H           2.7485   18.2265   17.5476 H       1  UNL1        0.0000
     28 H           1.6474   17.1660   16.6485 H       1  UNL1        0.0000
     29 C           4.6261   13.7534   14.2760 C.3     1  UNL1        0.0000
     30 H           5.1510   14.6176   14.6721 H       1  UNL1        0.0000
     31 H           4.7917   13.7342   13.2032 H       1  UNL1        0.0000
     32 H           5.0916   12.8661   14.6904 H       1  UNL1        0.0000
     33 C           2.0679   15.3656   13.7221 C.3     1  UNL1        0.0000
     34 H           1.0125   15.5066   13.9322 H       1  UNL1        0.0000
     35 H           2.1727   15.2376   12.6497 H       1  UNL1        0.0000
     36 H           2.5874   16.2794   13.9950 H       1  UNL1        0.0000
     37 C           1.8877   12.2806   13.9691 C.3     1  UNL1        0.0000
     38 H           1.7702   11.5256   14.7402 H       1  UNL1        0.0000
     39 H           2.4348   11.8405   13.1397 H       1  UNL1        0.0000
     40 H           0.8913   12.5252   13.6152 H       1  UNL1        0.0000
@<TRIPOS>BOND
     1    35    33    1
     2    39    37    1
     3    31    29    1
     4    40    37    1
     5    33    34    1
     6    33    36    1
     7    33     7    1
     8    37     7    1
     9    37    38    1
    10    29     7    1
    11    29    30    1
    12    29    32    1
    13     7     5    1
    14     5     6    1
    15     5     3    1
    16    28    25    1
    17     4     3    1
    18    26    25    1
    19    25    27    1
    20    25    12    1
    21     3     1    1
    22    23    21    1
    23    12     8    1
    24    12    11    1
    25    24    21    1
    26     1     8    1
    27     1     2    1
    28    21    11    1
    29    21    22    1
    30     8     9    1
    31    11    10    2
    32     9    10    1
    33     9    13    1
    34    10    17    1
    35    15    13    1
    36    13    16    1
    37    13    14    1
    38    18    17    1
    39    17    20    1
    40    17    19    1
