@<TRIPOS>MOLECULE
2,7,8,9,10,11
 35 35 0 0 0
SMALL
GASTEIGER

@<TRIPOS>ATOM
      1 SI          7.6755    1.6592    2.9158 Si      1  UNL1        0.0000
      2 N           3.4704    4.0315    6.0762 N.3     1  UNL1        0.0000
      3 C           4.0590    5.3006    6.5344 C.3     1  UNL1        0.0000
      4 C           5.0119    5.1186    7.7172 C.3     1  UNL1        0.0000
      5 C           6.4115    4.6186    7.3257 C.3     1  UNL1        0.0000
      6 C           6.3882    3.2910    6.6226 C.3     1  UNL1        0.0000
      7 C           6.9737    3.1303    5.3499 C.2     1  UNL1        0.0000
      8 C           6.8993    1.8950    4.6560 C.2     1  UNL1        0.0000
      9 C           6.2632    0.8082    5.2957 C.3     1  UNL1        0.0000
     10 C           5.7961    0.9213    6.6282 C.2     1  UNL1        0.0000
     11 C           5.8387    2.1488    7.2778 C.2     1  UNL1        0.0000
     12 C           9.4194    0.9696    3.2279 C.3     1  UNL1        0.0000
     13 C           6.5260    0.4474    2.0023 C.3     1  UNL1        0.0000
     14 C           7.7011    3.3761    2.0886 C.3     1  UNL1        0.0000
     15 H           2.7086    4.2257    5.4173 H       1  UNL1        0.0000
     16 H           3.0248    3.5526    6.8687 H       1  UNL1        0.0000
     17 H           4.5829    5.7595    5.6894 H       1  UNL1        0.0000
     18 H           3.2551    5.9783    6.8452 H       1  UNL1        0.0000
     19 H           5.1321    6.0844    8.2089 H       1  UNL1        0.0000
     20 H           4.5555    4.4417    8.4434 H       1  UNL1        0.0000
     21 H           6.8897    5.3639    6.6862 H       1  UNL1        0.0000
     22 H           7.0096    4.5279    8.2368 H       1  UNL1        0.0000
     23 H           7.5155    3.9573    4.9050 H       1  UNL1        0.0000
     24 H           6.2382   -0.1595    4.8076 H       1  UNL1        0.0000
     25 H           5.4138    0.0469    7.1422 H       1  UNL1        0.0000
     26 H           5.5197    2.2258    8.3113 H       1  UNL1        0.0000
     27 H          10.0320    1.6526    3.8100 H       1  UNL1        0.0000
     28 H           9.9270    0.8030    2.2837 H       1  UNL1        0.0000
     29 H           9.3934    0.0198    3.7549 H       1  UNL1        0.0000
     30 H           6.7730   -0.5849    2.2334 H       1  UNL1        0.0000
     31 H           6.6150    0.5585    0.9266 H       1  UNL1        0.0000
     32 H           5.4834    0.6065    2.2715 H       1  UNL1        0.0000
     33 H           6.7574    3.9016    2.2133 H       1  UNL1        0.0000
     34 H           7.8913    3.2801    1.0246 H       1  UNL1        0.0000
     35 H           8.4899    4.0046    2.4920 H       1  UNL1        0.0000
@<TRIPOS>BOND
     1    31    13    1
     2    34    14    1
     3    13    30    1
     4    13    32    1
     5    13     1    1
     6    14    33    1
     7    14    35    1
     8    14     1    1
     9    28    12    1
    10     1    12    1
    11     1     8    1
    12    12    29    1
    13    12    27    1
    14     8     9    1
    15     8     7    2
    16    24     9    1
    17    23     7    1
    18     9    10    1
    19     7     6    1
    20    15     2    1
    21    17     3    1
    22     2     3    1
    23     2    16    1
    24     3    18    1
    25     3     4    1
    26     6    11    1
    27     6     5    1
    28    10    25    1
    29    10    11    2
    30    21     5    1
    31    11    26    1
    32     5     4    1
    33     5    22    1
    34     4    19    1
    35     4    20    1
