@<TRIPOS>MOLECULE
2,6,7,8,9,10,11
 35 35 0 0 0
SMALL
GASTEIGER

@<TRIPOS>ATOM
      1 SI         16.6867   14.8359   12.8286 Si      1  UNL1        0.0000
      2 N          15.5023   11.4244    8.8244 N.3     1  UNL1        0.0000
      3 C          15.4267   11.9025    7.4370 C.3     1  UNL1        0.0000
      4 C          16.0701   13.2768    7.2498 C.3     1  UNL1        0.0000
      5 C          15.1473   14.4391    7.6445 C.3     1  UNL1        0.0000
      6 C          14.7343   14.3864    9.0877 C.3     1  UNL1        0.0000
      7 C          15.7084   14.5287   10.1093 C.3     1  UNL1        0.0000
      8 C          15.3642   14.5134   11.4714 C.2     1  UNL1        0.0000
      9 C          14.0042   14.3264   11.8084 C.2     1  UNL1        0.0000
     10 C          13.0166   14.2100   10.8061 C.2     1  UNL1        0.0000
     11 C          13.3751   14.2584    9.4448 C.2     1  UNL1        0.0000
     12 C          18.3881   14.3385   12.1421 C.3     1  UNL1        0.0000
     13 C          16.2408   13.8586   14.3968 C.3     1  UNL1        0.0000
     14 C          16.5367   16.7163   13.0948 C.3     1  UNL1        0.0000
     15 H          16.4888   11.3827    9.1144 H       1  UNL1        0.0000
     16 H          15.1682   10.4541    8.8611 H       1  UNL1        0.0000
     17 H          15.9411   11.1862    6.7849 H       1  UNL1        0.0000
     18 H          14.3751   11.9346    7.1355 H       1  UNL1        0.0000
     19 H          16.9976   13.3180    7.8260 H       1  UNL1        0.0000
     20 H          16.3314   13.3977    6.1982 H       1  UNL1        0.0000
     21 H          15.6774   15.3778    7.4623 H       1  UNL1        0.0000
     22 H          14.2620   14.4252    7.0049 H       1  UNL1        0.0000
     23 H          16.7364   14.7276    9.8289 H       1  UNL1        0.0000
     24 H          13.6968   14.3816   12.8467 H       1  UNL1        0.0000
     25 H          11.9672   14.1655   11.0828 H       1  UNL1        0.0000
     26 H          12.6050   14.2580    8.6820 H       1  UNL1        0.0000
     27 H          18.3927   13.3122   11.7856 H       1  UNL1        0.0000
     28 H          19.1355   14.4110   12.9255 H       1  UNL1        0.0000
     29 H          18.7136   14.9846   11.3313 H       1  UNL1        0.0000
     30 H          15.2677   14.1314   14.7967 H       1  UNL1        0.0000
     31 H          16.9732   14.0601   15.1723 H       1  UNL1        0.0000
     32 H          16.2475   12.7871   14.2176 H       1  UNL1        0.0000
     33 H          16.7290   17.2769   12.1845 H       1  UNL1        0.0000
     34 H          17.2607   17.0393   13.8344 H       1  UNL1        0.0000
     35 H          15.5529   17.0019   13.4557 H       1  UNL1        0.0000
@<TRIPOS>BOND
     1    20     4    1
     2    17     3    1
     3    22     5    1
     4    18     3    1
     5     4     3    1
     6     4     5    1
     7     4    19    1
     8     3     2    1
     9    21     5    1
    10     5     6    1
    11    26    11    1
    12     2    16    1
    13     2    15    1
    14     6    11    1
    15     6     7    1
    16    11    10    2
    17    23     7    1
    18     7     8    1
    19    10    25    1
    20    10     9    1
    21    29    12    1
    22     8     9    2
    23     8     1    1
    24    27    12    1
    25     9    24    1
    26    12     1    1
    27    12    28    1
    28    33    14    1
    29     1    14    1
    30     1    13    1
    31    14    35    1
    32    14    34    1
    33    32    13    1
    34    13    30    1
    35    13    31    1
