@<TRIPOS>MOLECULE
2,5,6,7,8,9,10
 32 32 0 0 0
SMALL
GASTEIGER

@<TRIPOS>ATOM
      1 SI          1.8337    2.7266    1.7993 Si      1  UNL1        0.0000
      2 N           5.8304    6.4871    4.6940 N.3     1  UNL1        0.0000
      3 C           5.2415    7.8352    4.5729 C.3     1  UNL1        0.0000
      4 C           4.7769    8.0897    3.1274 C.3     1  UNL1        0.0000
      5 C           4.0014    6.8720    2.6895 C.3     1  UNL1        0.0000
      6 C           2.7886    6.5532    3.3311 C.3     1  UNL1        0.0000
      7 C           2.1908    5.2940    3.1241 C.2     1  UNL1        0.0000
      8 C           2.7718    4.3255    2.2862 C.2     1  UNL1        0.0000
      9 C           3.9748    4.6871    1.6164 C.2     1  UNL1        0.0000
     10 C           4.5635    5.9496    1.7706 C.2     1  UNL1        0.0000
     11 C           1.1328    3.1346    0.0750 C.3     1  UNL1        0.0000
     12 C           3.0732    1.2851    1.7197 C.3     1  UNL1        0.0000
     13 C           0.4459    2.4185    3.0635 C.3     1  UNL1        0.0000
     14 H           5.9718    6.2756    5.6883 H       1  UNL1        0.0000
     15 H           6.7494    6.4640    4.2432 H       1  UNL1        0.0000
     16 H           4.3833    7.8727    5.2511 H       1  UNL1        0.0000
     17 H           5.9595    8.6034    4.8815 H       1  UNL1        0.0000
     18 H           4.1575    8.9878    3.1006 H       1  UNL1        0.0000
     19 H           5.6391    8.2477    2.4749 H       1  UNL1        0.0000
     20 H           2.2977    7.2866    3.9610 H       1  UNL1        0.0000
     21 H           1.2420    5.0816    3.6031 H       1  UNL1        0.0000
     22 H           4.4022    3.9918    0.9020 H       1  UNL1        0.0000
     23 H           5.4240    6.2314    1.1734 H       1  UNL1        0.0000
     24 H           0.4840    4.0061    0.0934 H       1  UNL1        0.0000
     25 H           0.5449    2.3012   -0.2956 H       1  UNL1        0.0000
     26 H           1.9187    3.3251   -0.6507 H       1  UNL1        0.0000
     27 H           3.8864    1.4823    1.0267 H       1  UNL1        0.0000
     28 H           2.5722    0.3845    1.3798 H       1  UNL1        0.0000
     29 H           3.5118    1.0689    2.6896 H       1  UNL1        0.0000
     30 H           0.7772    2.5155    4.0934 H       1  UNL1        0.0000
     31 H           0.0529    1.4138    2.9450 H       1  UNL1        0.0000
     32 H          -0.3851    3.1032    2.9172 H       1  UNL1        0.0000
@<TRIPOS>BOND
     1    26    11    1
     2    25    11    1
     3    11    24    1
     4    11     1    1
     5    22     9    1
     6    27    12    1
     7    23    10    1
     8    28    12    1
     9     9    10    2
    10     9     8    1
    11    12     1    1
    12    12    29    1
    13    10     5    1
    14     1     8    1
    15     1    13    1
    16     8     7    2
    17    19     4    1
    18     5     4    1
    19     5     6    1
    20    32    13    1
    21    31    13    1
    22    13    30    1
    23    18     4    1
    24     7     6    1
    25     7    21    1
    26     4     3    1
    27     6    20    1
    28    15     2    1
    29     3     2    1
    30     3    17    1
    31     3    16    1
    32     2    14    1
