@<TRIPOS>MOLECULE
2,6,7,8,9,10,11
 35 35 0 0 0
SMALL
GASTEIGER

@<TRIPOS>ATOM
      1 SI          6.5817    1.1036   -2.3194 Si      1  UNL1        0.0000
      2 N           6.8389    6.8278    0.0693 N.3     1  UNL1        0.0000
      3 C           5.5833    7.5813    0.1966 C.3     1  UNL1        0.0000
      4 C           4.6033    6.9241    1.1706 C.3     1  UNL1        0.0000
      5 C           3.7022    5.8795    0.4936 C.3     1  UNL1        0.0000
      6 C           4.5039    4.8052   -0.1816 C.2     1  UNL1        0.0000
      7 C           5.1331    3.7990    0.5861 C.2     1  UNL1        0.0000
      8 C           5.8753    2.7895   -0.0529 C.3     1  UNL1        0.0000
      9 C           5.9714    2.7075   -1.4676 C.2     1  UNL1        0.0000
     10 C           5.3445    3.7287   -2.2092 C.2     1  UNL1        0.0000
     11 C           4.6277    4.7688   -1.5865 C.3     1  UNL1        0.0000
     12 C           5.0578   -0.0360   -2.1963 C.3     1  UNL1        0.0000
     13 C           7.0213    1.4876   -4.1307 C.3     1  UNL1        0.0000
     14 C           8.0439    0.3784   -1.3414 C.3     1  UNL1        0.0000
     15 H           7.3488    6.8833    0.9560 H       1  UNL1        0.0000
     16 H           7.4241    7.2933   -0.6394 H       1  UNL1        0.0000
     17 H           5.8122    8.5942    0.5490 H       1  UNL1        0.0000
     18 H           5.1328    7.6689   -0.7967 H       1  UNL1        0.0000
     19 H           5.1649    6.4597    1.9854 H       1  UNL1        0.0000
     20 H           3.9631    7.6914    1.6057 H       1  UNL1        0.0000
     21 H           3.0582    5.4289    1.2523 H       1  UNL1        0.0000
     22 H           3.0652    6.3820   -0.2369 H       1  UNL1        0.0000
     23 H           4.9734    3.7584    1.6577 H       1  UNL1        0.0000
     24 H           6.2931    1.9883    0.5484 H       1  UNL1        0.0000
     25 H           5.3649    3.6848   -3.2926 H       1  UNL1        0.0000
     26 H           4.0944    5.4920   -2.1940 H       1  UNL1        0.0000
     27 H           4.7679   -0.2188   -1.1651 H       1  UNL1        0.0000
     28 H           5.2736   -0.9987   -2.6477 H       1  UNL1        0.0000
     29 H           4.1949    0.3775   -2.7113 H       1  UNL1        0.0000
     30 H           6.1315    1.5180   -4.7537 H       1  UNL1        0.0000
     31 H           7.6631    0.7102   -4.5334 H       1  UNL1        0.0000
     32 H           7.5415    2.4329   -4.2554 H       1  UNL1        0.0000
     33 H           8.9058    1.0392   -1.3381 H       1  UNL1        0.0000
     34 H           8.3541   -0.5596   -1.7908 H       1  UNL1        0.0000
     35 H           7.7800    0.1679   -0.3084 H       1  UNL1        0.0000
@<TRIPOS>BOND
     1    30    13    1
     2    31    13    1
     3    32    13    1
     4    13     1    1
     5    25    10    1
     6    29    12    1
     7    28    12    1
     8     1    12    1
     9     1     9    1
    10     1    14    1
    11    10    11    1
    12    10     9    2
    13    12    27    1
    14    26    11    1
    15    34    14    1
    16    11     6    1
    17     9     8    1
    18    14    33    1
    19    14    35    1
    20    18     3    1
    21    16     2    1
    22    22     5    1
    23     6     5    1
    24     6     7    2
    25     8    24    1
    26     8     7    1
    27     2     3    1
    28     2    15    1
    29     3    17    1
    30     3     4    1
    31     5     4    1
    32     5    21    1
    33     7    23    1
    34     4    20    1
    35     4    19    1
