@<TRIPOS>MOLECULE
1,5,6,7
 82 84 0 0 0
SMALL
GASTEIGER

@<TRIPOS>ATOM
      1 P           0.1247    7.2733    1.7793 P.3     1  UNL1        0.0000
      2 SI         -2.1516    4.6233    4.2978 Si      1  UNL1        0.0000
      3 SI         -0.3455   10.2113    4.7839 Si      1  UNL1        0.0000
      4 SI          3.2454    5.2467    4.3788 Si      1  UNL1        0.0000
      5 N          -1.6045    6.2157    3.9645 N.pl3   1  UNL1        0.0000
      6 N           0.6487    9.0270    4.0396 N.pl3   1  UNL1        0.0000
      7 N           1.7827    5.5007    3.5038 N.pl3   1  UNL1        0.0000
      8 C          -1.5438    6.8652    1.1195 C.3     1  UNL1        0.0000
      9 H          -1.6814    7.2353    0.0993 H       1  UNL1        0.0000
     10 H          -1.6392    5.7753    1.1302 H       1  UNL1        0.0000
     11 C           0.4295    8.9726    1.1420 C.3     1  UNL1        0.0000
     12 H           0.5514    8.9865    0.0552 H       1  UNL1        0.0000
     13 H          -0.4316    9.5864    1.4226 H       1  UNL1        0.0000
     14 C           1.2366    6.2308    0.7531 C.3     1  UNL1        0.0000
     15 H           1.0010    6.3030   -0.3128 H       1  UNL1        0.0000
     16 H           2.2614    6.5784    0.9266 H       1  UNL1        0.0000
     17 C          -2.5330    7.4821    2.0663 C.ar    1  UNL1        0.0000
     18 C          -2.5287    7.1230    3.4314 C.ar    1  UNL1        0.0000
     19 C          -3.5399    7.6556    4.2390 C.ar    1  UNL1        0.0000
     20 H          -3.5891    7.3362    5.2684 H       1  UNL1        0.0000
     21 C          -4.4667    8.5555    3.7527 C.ar    1  UNL1        0.0000
     22 H          -5.2282    8.9500    4.4097 H       1  UNL1        0.0000
     23 C          -4.4244    8.9462    2.4261 C.ar    1  UNL1        0.0000
     24 H          -5.1390    9.6554    2.0368 H       1  UNL1        0.0000
     25 C          -3.4631    8.3966    1.5958 C.ar    1  UNL1        0.0000
     26 H          -3.4449    8.6707    0.5492 H       1  UNL1        0.0000
     27 C          -3.7599    4.5100    5.3433 C.3     1  UNL1        0.0000
     28 H          -3.6641    4.9880    6.3141 H       1  UNL1        0.0000
     29 H          -4.0301    3.4734    5.5173 H       1  UNL1        0.0000
     30 H          -4.5901    4.9802    4.8260 H       1  UNL1        0.0000
     31 C          -2.5258    3.6107    2.7106 C.3     1  UNL1        0.0000
     32 H          -3.2904    4.0931    2.1080 H       1  UNL1        0.0000
     33 H          -2.8906    2.6196    2.9609 H       1  UNL1        0.0000
     34 H          -1.6401    3.4834    2.0949 H       1  UNL1        0.0000
     35 C          -0.7492    3.7753    5.2758 C.3     1  UNL1        0.0000
     36 H           0.1519    4.3941    5.2793 H       1  UNL1        0.0000
     37 H          -0.5102    2.8212    4.8221 H       1  UNL1        0.0000
     38 H          -1.0331    3.5729    6.3030 H       1  UNL1        0.0000
     39 C           1.6648    9.4631    1.8417 C.ar    1  UNL1        0.0000
     40 C           1.7095    9.4873    3.2524 C.ar    1  UNL1        0.0000
     41 C           2.8472   10.0450    3.8494 C.ar    1  UNL1        0.0000
     42 H           2.8701   10.1256    4.9261 H       1  UNL1        0.0000
     43 C           3.9196   10.4913    3.1036 C.ar    1  UNL1        0.0000
     44 H           4.7826   10.9079    3.6022 H       1  UNL1        0.0000
     45 C           3.8869   10.4073    1.7229 C.ar    1  UNL1        0.0000
     46 H           4.7233   10.7462    1.1308 H       1  UNL1        0.0000
     47 C           2.7552    9.9021    1.1073 C.ar    1  UNL1        0.0000
     48 H           2.7085    9.8647    0.0270 H       1  UNL1        0.0000
     49 C          -1.4585    9.2787    6.0164 C.3     1  UNL1        0.0000
     50 H          -1.4347    8.2084    5.8064 H       1  UNL1        0.0000
     51 H          -2.4833    9.6224    5.9390 H       1  UNL1        0.0000
     52 H          -1.1427    9.4375    7.0416 H       1  UNL1        0.0000
     53 C           0.5841   11.5955    5.7369 C.3     1  UNL1        0.0000
     54 H           1.1900   11.2037    6.5484 H       1  UNL1        0.0000
     55 H          -0.1180   12.3031    6.1663 H       1  UNL1        0.0000
     56 H           1.2401   12.1497    5.0731 H       1  UNL1        0.0000
     57 C          -1.4636   11.1382    3.5263 C.3     1  UNL1        0.0000
     58 H          -0.8706   11.6525    2.7753 H       1  UNL1        0.0000
     59 H          -2.0691   11.8874    4.0262 H       1  UNL1        0.0000
     60 H          -2.1427   10.4603    3.0168 H       1  UNL1        0.0000
     61 C           1.0759    4.8258    1.2590 C.ar    1  UNL1        0.0000
     62 C           1.3765    4.5169    2.6051 C.ar    1  UNL1        0.0000
     63 C           1.3546    3.1616    2.9601 C.ar    1  UNL1        0.0000
     64 H           1.6653    2.8938    3.9573 H       1  UNL1        0.0000
     65 C           0.9643    2.1752    2.0783 C.ar    1  UNL1        0.0000
     66 H           0.9530    1.1433    2.3989 H       1  UNL1        0.0000
     67 C           0.5938    2.5036    0.7858 C.ar    1  UNL1        0.0000
     68 H           0.2755    1.7414    0.0912 H       1  UNL1        0.0000
     69 C           0.6703    3.8269    0.3881 C.ar    1  UNL1        0.0000
     70 H           0.4321    4.0891   -0.6344 H       1  UNL1        0.0000
     71 C           4.5051    4.2144    3.3748 C.3     1  UNL1        0.0000
     72 H           4.1594    3.1976    3.2274 H       1  UNL1        0.0000
     73 H           5.4646    4.1688    3.8782 H       1  UNL1        0.0000
     74 H           4.6663    4.6456    2.3922 H       1  UNL1        0.0000
     75 C           3.0871    4.4233    6.1106 C.3     1  UNL1        0.0000
     76 H           2.2767    4.8698    6.6792 H       1  UNL1        0.0000
     77 H           4.0014    4.5474    6.6831 H       1  UNL1        0.0000
     78 H           2.8944    3.3563    6.0431 H       1  UNL1        0.0000
     79 C           3.9542    7.0068    4.5833 C.3     1  UNL1        0.0000
     80 H           4.7056    7.2293    3.8332 H       1  UNL1        0.0000
     81 H           4.4144    7.1493    5.5540 H       1  UNL1        0.0000
     82 H           3.1530    7.7337    4.4657 H       1  UNL1        0.0000
@<TRIPOS>BOND
     1    70    69    1
     2    15    14    1
     3    48    47    1
     4    12    11    1
     5    68    67    1
     6     9     8    1
     7    69    67   ar
     8    69    61   ar
     9    26    25    1
    10    14    16    1
    11    14    61    1
    12    14     1    1
    13    67    65   ar
    14    47    45   ar
    15    47    39   ar
    16     8    10    1
    17     8     1    1
    18     8    17    1
    19    46    45    1
    20    11    13    1
    21    11     1    1
    22    11    39    1
    23    61    62   ar
    24    25    17   ar
    25    25    23   ar
    26    45    43   ar
    27    39    40   ar
    28    24    23    1
    29    17    18   ar
    30    65    66    1
    31    65    63   ar
    32    34    31    1
    33    32    31    1
    34    74    71    1
    35    23    21   ar
    36    62    63   ar
    37    62     7    1
    38    31    33    1
    39    31     2    1
    40    58    57    1
    41    63    64    1
    42    60    57    1
    43    43    44    1
    44    43    41   ar
    45    72    71    1
    46    40    41   ar
    47    40     6    1
    48    71    73    1
    49    71     4    1
    50    18     5    1
    51    18    19   ar
    52     7     4    1
    53    57    59    1
    54    57     3    1
    55    21    19   ar
    56    21    22    1
    57    80    79    1
    58    41    42    1
    59     5     2    1
    60     6     3    1
    61    19    20    1
    62     2    35    1
    63     2    27    1
    64     4    79    1
    65     4    75    1
    66    82    79    1
    67    79    81    1
    68     3    53    1
    69     3    49    1
    70    37    35    1
    71    30    27    1
    72    56    53    1
    73    35    36    1
    74    35    38    1
    75    27    29    1
    76    27    28    1
    77    53    55    1
    78    53    54    1
    79    50    49    1
    80    51    49    1
    81    49    52    1
    82    78    75    1
    83    75    76    1
    84    75    77    1
