@<TRIPOS>MOLECULE
1,5,6,7
 82 84 0 0 0
SMALL
GASTEIGER

@<TRIPOS>ATOM
      1 P          -0.0911    5.0468    9.4827 P.3     1  UNL1        0.0000
      2 SI         -0.8739    1.2881   11.3134 Si      1  UNL1        0.0000
      3 SI         -2.0711    6.8011   12.9831 Si      1  UNL1        0.0000
      4 SI          2.8226    4.9135   12.7156 Si      1  UNL1        0.0000
      5 N          -1.2202    2.9622   11.0111 N.pl3   1  UNL1        0.0000
      6 N          -0.7513    6.2876   11.9707 N.pl3   1  UNL1        0.0000
      7 N           1.6785    4.1618   11.6428 N.pl3   1  UNL1        0.0000
      8 C          -0.9942    3.9594    8.3111 C.3     1  UNL1        0.0000
      9 H          -1.0954    4.4099    7.3188 H       1  UNL1        0.0000
     10 H          -0.4375    3.0185    8.2374 H       1  UNL1        0.0000
     11 C          -0.6911    6.7423    9.1212 C.3     1  UNL1        0.0000
     12 H          -0.5268    7.0362    8.0798 H       1  UNL1        0.0000
     13 H          -1.7629    6.7729    9.3535 H       1  UNL1        0.0000
     14 C           1.6336    5.0687    8.8590 C.3     1  UNL1        0.0000
     15 H           1.6767    5.2045    7.7733 H       1  UNL1        0.0000
     16 H           2.1471    5.9006    9.3549 H       1  UNL1        0.0000
     17 C          -2.3296    3.7351    8.9639 C.ar    1  UNL1        0.0000
     18 C          -3.5062    4.0056    8.2834 C.ar    1  UNL1        0.0000
     19 H          -3.4522    4.3846    7.2714 H       1  UNL1        0.0000
     20 C          -4.7425    3.7776    8.8630 C.ar    1  UNL1        0.0000
     21 H          -5.6470    3.9873    8.3128 H       1  UNL1        0.0000
     22 C          -4.8013    3.2683   10.1489 C.ar    1  UNL1        0.0000
     23 H          -5.7576    3.0736   10.6118 H       1  UNL1        0.0000
     24 C          -3.6385    3.0093   10.8472 C.ar    1  UNL1        0.0000
     25 H          -3.6831    2.6170   11.8521 H       1  UNL1        0.0000
     26 C          -2.3767    3.2509   10.2907 C.ar    1  UNL1        0.0000
     27 C           0.3333    1.0873   12.7794 C.3     1  UNL1        0.0000
     28 H           0.9405    1.9795   12.9275 H       1  UNL1        0.0000
     29 H           0.9922    0.2411   12.6130 H       1  UNL1        0.0000
     30 H          -0.2089    0.9076   13.7031 H       1  UNL1        0.0000
     31 C          -0.1325    0.5229    9.7115 C.3     1  UNL1        0.0000
     32 H          -0.8701    0.5111    8.9136 H       1  UNL1        0.0000
     33 H           0.1711   -0.5041    9.8843 H       1  UNL1        0.0000
     34 H           0.7388    1.0657    9.3582 H       1  UNL1        0.0000
     35 C          -2.4029    0.1954   11.7066 C.3     1  UNL1        0.0000
     36 H          -2.8641    0.4559   12.6546 H       1  UNL1        0.0000
     37 H          -2.1040   -0.8464   11.7671 H       1  UNL1        0.0000
     38 H          -3.1599    0.2741   10.9326 H       1  UNL1        0.0000
     39 C           0.0877    7.6001   10.0769 C.ar    1  UNL1        0.0000
     40 C           0.8583    8.6509    9.6054 C.ar    1  UNL1        0.0000
     41 H           0.8898    8.8410    8.5408 H       1  UNL1        0.0000
     42 C           1.5597    9.4756   10.4675 C.ar    1  UNL1        0.0000
     43 H           2.1486   10.2933   10.0816 H       1  UNL1        0.0000
     44 C           1.4747    9.2453   11.8299 C.ar    1  UNL1        0.0000
     45 H           1.9939    9.8921   12.5218 H       1  UNL1        0.0000
     46 C           0.7241    8.1921   12.3129 C.ar    1  UNL1        0.0000
     47 H           0.6528    8.0356   13.3773 H       1  UNL1        0.0000
     48 C           0.0364    7.3174   11.4610 C.ar    1  UNL1        0.0000
     49 C          -3.5090    5.5747   12.7327 C.3     1  UNL1        0.0000
     50 H          -3.7668    5.4610   11.6824 H       1  UNL1        0.0000
     51 H          -4.3945    5.9210   13.2543 H       1  UNL1        0.0000
     52 H          -3.2548    4.5976   13.1326 H       1  UNL1        0.0000
     53 C          -2.6621    8.5135   12.3526 C.3     1  UNL1        0.0000
     54 H          -1.8807    9.2597   12.4476 H       1  UNL1        0.0000
     55 H          -3.5185    8.8580   12.9210 H       1  UNL1        0.0000
     56 H          -2.9530    8.4795   11.3073 H       1  UNL1        0.0000
     57 C          -1.7264    7.0126   14.8630 C.3     1  UNL1        0.0000
     58 H          -1.2967    6.1148   15.2974 H       1  UNL1        0.0000
     59 H          -2.6576    7.2120   15.3848 H       1  UNL1        0.0000
     60 H          -1.0578    7.8439   15.0709 H       1  UNL1        0.0000
     61 C           2.2287    3.7541    9.2749 C.ar    1  UNL1        0.0000
     62 C           2.2184    3.3602   10.6321 C.ar    1  UNL1        0.0000
     63 C           2.8529    2.1522   10.9482 C.ar    1  UNL1        0.0000
     64 H           2.8998    1.8516   11.9815 H       1  UNL1        0.0000
     65 C           3.4217    1.3457    9.9830 C.ar    1  UNL1        0.0000
     66 H           3.8959    0.4197   10.2728 H       1  UNL1        0.0000
     67 C           3.3859    1.7220    8.6520 C.ar    1  UNL1        0.0000
     68 H           3.8216    1.0965    7.8882 H       1  UNL1        0.0000
     69 C           2.7917    2.9252    8.3155 C.ar    1  UNL1        0.0000
     70 H           2.7799    3.2414    7.2809 H       1  UNL1        0.0000
     71 C           1.9037    5.5697   14.2513 C.3     1  UNL1        0.0000
     72 H           0.9219    5.9574   13.9904 H       1  UNL1        0.0000
     73 H           2.4735    6.3661   14.7194 H       1  UNL1        0.0000
     74 H           1.7613    4.7871   14.9922 H       1  UNL1        0.0000
     75 C           3.7335    6.3239   11.7767 C.3     1  UNL1        0.0000
     76 H           4.2962    5.9256   10.9364 H       1  UNL1        0.0000
     77 H           4.4400    6.8273   12.4281 H       1  UNL1        0.0000
     78 H           3.0473    7.0752   11.3971 H       1  UNL1        0.0000
     79 C           4.2279    3.7707   13.3569 C.3     1  UNL1        0.0000
     80 H           3.8533    2.9423   13.9512 H       1  UNL1        0.0000
     81 H           4.9022    4.3408   13.9882 H       1  UNL1        0.0000
     82 H           4.8148    3.3605   12.5411 H       1  UNL1        0.0000
@<TRIPOS>BOND
     1    19    18    1
     2    70    69    1
     3     9     8    1
     4    15    14    1
     5    68    67    1
     6    12    11    1
     7    10     8    1
     8    18    20   ar
     9    18    17   ar
    10     8    17    1
    11     8     1    1
    12    21    20    1
    13    69    67   ar
    14    69    61   ar
    15    41    40    1
    16    67    65   ar
    17    14    61    1
    18    14    16    1
    19    14     1    1
    20    20    22   ar
    21    32    31    1
    22    17    26   ar
    23    11    13    1
    24    11     1    1
    25    11    39    1
    26    61    62   ar
    27    34    31    1
    28    40    39   ar
    29    40    42   ar
    30    31    33    1
    31    31     2    1
    32    65    66    1
    33    65    63   ar
    34    39    48   ar
    35    43    42    1
    36    22    23    1
    37    22    24   ar
    38    26    24   ar
    39    26     5    1
    40    42    44   ar
    41    62    63   ar
    42    62     7    1
    43    24    25    1
    44    38    35    1
    45    76    75    1
    46    63    64    1
    47     5     2    1
    48    56    53    1
    49     2    35    1
    50     2    27    1
    51    78    75    1
    52    48     6    1
    53    48    46   ar
    54     7     4    1
    55    50    49    1
    56    35    37    1
    57    35    36    1
    58    75    77    1
    59    75     4    1
    60    44    46   ar
    61    44    45    1
    62     6     3    1
    63    46    47    1
    64    53    54    1
    65    53    55    1
    66    53     3    1
    67    82    79    1
    68    29    27    1
    69     4    79    1
    70     4    71    1
    71    49     3    1
    72    49    52    1
    73    49    51    1
    74    27    28    1
    75    27    30    1
    76     3    57    1
    77    79    80    1
    78    79    81    1
    79    72    71    1
    80    71    73    1
    81    71    74    1
    82    57    60    1
    83    57    58    1
    84    57    59    1
