@<TRIPOS>MOLECULE
1,5,6,7
 82 84 0 0 0
SMALL
GASTEIGER

@<TRIPOS>ATOM
      1 P           6.1415    3.1479    8.8715 P.3     1  UNL1        0.0000
      2 SI          8.2476    1.3574    5.3863 Si      1  UNL1        0.0000
      3 SI          6.9532    7.0098    7.0226 Si      1  UNL1        0.0000
      4 SI          3.1541    3.3614    5.6072 Si      1  UNL1        0.0000
      5 N           6.8865    1.8478    6.3339 N.pl3   1  UNL1        0.0000
      6 N           7.3250    5.3672    7.3854 N.pl3   1  UNL1        0.0000
      7 N           4.2293    4.0726    6.7441 N.pl3   1  UNL1        0.0000
      8 C           6.6721    1.4168    9.1877 C.3     1  UNL1        0.0000
      9 H           7.7453    1.3515    8.9785 H       1  UNL1        0.0000
     10 H           6.4754    1.0978   10.2150 H       1  UNL1        0.0000
     11 C           7.0928    4.2006   10.0394 C.3     1  UNL1        0.0000
     12 H           6.5424    5.1423   10.1426 H       1  UNL1        0.0000
     13 H           7.2101    3.7336   11.0214 H       1  UNL1        0.0000
     14 C           4.4244    3.1768    9.5207 C.3     1  UNL1        0.0000
     15 H           3.8778    2.3668    9.0256 H       1  UNL1        0.0000
     16 H           4.3959    3.0275   10.6042 H       1  UNL1        0.0000
     17 C           5.8928    0.6005    8.1937 C.ar    1  UNL1        0.0000
     18 C           5.0424   -0.4014    8.6339 C.ar    1  UNL1        0.0000
     19 H           4.9405   -0.5722    9.6973 H       1  UNL1        0.0000
     20 C           4.3470   -1.2032    7.7456 C.ar    1  UNL1        0.0000
     21 H           3.6937   -1.9808    8.1103 H       1  UNL1        0.0000
     22 C           4.5215   -1.0060    6.3868 C.ar    1  UNL1        0.0000
     23 H           4.0098   -1.6391    5.6769 H       1  UNL1        0.0000
     24 C           5.3530   -0.0021    5.9324 C.ar    1  UNL1        0.0000
     25 H           5.4999    0.1311    4.8720 H       1  UNL1        0.0000
     26 C           6.0330    0.8510    6.8103 C.ar    1  UNL1        0.0000
     27 C           9.5811    2.6632    5.7773 C.3     1  UNL1        0.0000
     28 H           9.1734    3.6680    5.6911 H       1  UNL1        0.0000
     29 H          10.4104    2.5869    5.0836 H       1  UNL1        0.0000
     30 H           9.9823    2.5504    6.7805 H       1  UNL1        0.0000
     31 C           8.8571   -0.3522    5.9867 C.3     1  UNL1        0.0000
     32 H           9.1397   -0.3323    7.0339 H       1  UNL1        0.0000
     33 H           9.7192   -0.6801    5.4178 H       1  UNL1        0.0000
     34 H           8.0805   -1.1009    5.8741 H       1  UNL1        0.0000
     35 C           7.9904    1.2091    3.4878 C.3     1  UNL1        0.0000
     36 H           7.3149    0.3985    3.2277 H       1  UNL1        0.0000
     37 H           8.9381    1.0046    2.9993 H       1  UNL1        0.0000
     38 H           7.5967    2.1256    3.0585 H       1  UNL1        0.0000
     39 C           8.4228    4.4490    9.3812 C.ar    1  UNL1        0.0000
     40 C           9.5962    4.1157   10.0398 C.ar    1  UNL1        0.0000
     41 H           9.5355    3.6538   11.0163 H       1  UNL1        0.0000
     42 C          10.8370    4.3821    9.4881 C.ar    1  UNL1        0.0000
     43 H          11.7373    4.1172   10.0213 H       1  UNL1        0.0000
     44 C          10.9045    5.0066    8.2548 C.ar    1  UNL1        0.0000
     45 H          11.8634    5.2402    7.8164 H       1  UNL1        0.0000
     46 C           9.7463    5.3306    7.5777 C.ar    1  UNL1        0.0000
     47 H           9.8009    5.8154    6.6154 H       1  UNL1        0.0000
     48 C           8.4792    5.0404    8.0989 C.ar    1  UNL1        0.0000
     49 C           8.3793    8.1305    6.4021 C.3     1  UNL1        0.0000
     50 H           9.1771    8.1939    7.1352 H       1  UNL1        0.0000
     51 H           8.0159    9.1383    6.2278 H       1  UNL1        0.0000
     52 H           8.8068    7.7725    5.4702 H       1  UNL1        0.0000
     53 C           6.2499    7.8623    8.5908 C.3     1  UNL1        0.0000
     54 H           5.3645    7.3577    8.9652 H       1  UNL1        0.0000
     55 H           5.9781    8.8915    8.3838 H       1  UNL1        0.0000
     56 H           6.9892    7.8752    9.3859 H       1  UNL1        0.0000
     57 C           5.6285    6.9714    5.6432 C.3     1  UNL1        0.0000
     58 H           6.0707    7.1569    4.6690 H       1  UNL1        0.0000
     59 H           4.8829    7.7408    5.8130 H       1  UNL1        0.0000
     60 H           5.1220    6.0012    5.6026 H       1  UNL1        0.0000
     61 C           3.8420    4.5066    9.1352 C.ar    1  UNL1        0.0000
     62 C           3.3761    5.3602   10.1241 C.ar    1  UNL1        0.0000
     63 H           3.4731    5.0619   11.1595 H       1  UNL1        0.0000
     64 C           2.7710    6.5658    9.8177 C.ar    1  UNL1        0.0000
     65 H           2.4161    7.2135   10.6045 H       1  UNL1        0.0000
     66 C           2.6110    6.9129    8.4878 C.ar    1  UNL1        0.0000
     67 H           2.1162    7.8358    8.2235 H       1  UNL1        0.0000
     68 C           3.0835    6.0817    7.4927 C.ar    1  UNL1        0.0000
     69 H           2.9412    6.3544    6.4603 H       1  UNL1        0.0000
     70 C           3.7429    4.8800    7.7776 C.ar    1  UNL1        0.0000
     71 C           4.3322    2.7922    4.2120 C.3     1  UNL1        0.0000
     72 H           4.5435    3.5945    3.5071 H       1  UNL1        0.0000
     73 H           3.8895    1.9796    3.6444 H       1  UNL1        0.0000
     74 H           5.2814    2.4347    4.6225 H       1  UNL1        0.0000
     75 C           2.2083    1.8848    6.3815 C.3     1  UNL1        0.0000
     76 H           2.8828    1.1304    6.7753 H       1  UNL1        0.0000
     77 H           1.5677    1.4027    5.6508 H       1  UNL1        0.0000
     78 H           1.5743    2.2226    7.1962 H       1  UNL1        0.0000
     79 C           1.8190    4.4817    4.8085 C.3     1  UNL1        0.0000
     80 H           1.1319    4.8626    5.5571 H       1  UNL1        0.0000
     81 H           1.2348    3.9170    4.0891 H       1  UNL1        0.0000
     82 H           2.2461    5.3316    4.2840 H       1  UNL1        0.0000
@<TRIPOS>BOND
     1    37    35    1
     2    38    35    1
     3    36    35    1
     4    35     2    1
     5    72    71    1
     6    73    71    1
     7    81    79    1
     8    71    74    1
     9    71     4    1
    10    82    79    1
    11    58    57    1
    12    79    80    1
    13    79     4    1
    14    25    24    1
    15    29    27    1
    16     2    27    1
    17     2    31    1
    18     2     5    1
    19    33    31    1
    20    52    49    1
    21    60    57    1
    22     4    75    1
    23     4     7    1
    24    57    59    1
    25    57     3    1
    26    77    75    1
    27    23    22    1
    28    28    27    1
    29    27    30    1
    30    34    31    1
    31    24    22   ar
    32    24    26   ar
    33    31    32    1
    34    51    49    1
    35     5    26    1
    36    75    76    1
    37    75    78    1
    38    22    20   ar
    39    49     3    1
    40    49    50    1
    41    69    68    1
    42    47    46    1
    43     7    70    1
    44    26    17   ar
    45     3     6    1
    46     3    53    1
    47     6    48    1
    48    68    70   ar
    49    68    66   ar
    50    46    48   ar
    51    46    44   ar
    52    20    21    1
    53    20    18   ar
    54    70    61   ar
    55    45    44    1
    56    48    39   ar
    57    17    18   ar
    58    17     8    1
    59    67    66    1
    60    44    42   ar
    61    55    53    1
    62    66    64   ar
    63    53    54    1
    64    53    56    1
    65    18    19    1
    66     1     8    1
    67     1    14    1
    68     1    11    1
    69     9     8    1
    70    15    14    1
    71    61    14    1
    72    61    62   ar
    73     8    10    1
    74    39    11    1
    75    39    40   ar
    76    42    43    1
    77    42    40   ar
    78    14    16    1
    79    64    62   ar
    80    64    65    1
    81    11    12    1
    82    11    13    1
    83    40    41    1
    84    62    63    1
