@<TRIPOS>MOLECULE
1,5,6,7
 82 84 0 0 0
SMALL
GASTEIGER

@<TRIPOS>ATOM
      1 P           3.0303    2.0016    1.7862 P.3     1  UNL1        0.0000
      2 SI          0.7776   -0.5969    4.3031 Si      1  UNL1        0.0000
      3 SI          2.5670    4.9229    4.7560 Si      1  UNL1        0.0000
      4 SI          6.1063   -0.0150    4.3761 Si      1  UNL1        0.0000
      5 N           1.2968    0.9969    3.9566 N.pl3   1  UNL1        0.0000
      6 N           3.5802    3.7592    4.0141 N.pl3   1  UNL1        0.0000
      7 N           4.6703    0.2174    3.4629 N.pl3   1  UNL1        0.0000
      8 C           1.3577    1.6153    1.1133 C.3     1  UNL1        0.0000
      9 H           1.2303    1.9846    0.0910 H       1  UNL1        0.0000
     10 H           1.2494    0.5258    1.1261 H       1  UNL1        0.0000
     11 C           3.3448    3.6956    1.1291 C.3     1  UNL1        0.0000
     12 H           3.4579    3.7016    0.0407 H       1  UNL1        0.0000
     13 H           2.4905    4.3182    1.4135 H       1  UNL1        0.0000
     14 C           4.1232    0.9574    0.7347 C.3     1  UNL1        0.0000
     15 H           3.8813    1.0427   -0.3292 H       1  UNL1        0.0000
     16 H           5.1529    1.2945    0.9071 H       1  UNL1        0.0000
     17 C           0.3671    2.2436    2.0507 C.ar    1  UNL1        0.0000
     18 C           0.3727    1.8954    3.4202 C.ar    1  UNL1        0.0000
     19 C          -0.6428    2.4303    4.2229 C.ar    1  UNL1        0.0000
     20 H          -0.6941    2.1147    5.2545 H       1  UNL1        0.0000
     21 C          -1.5726    3.3225    3.7278 C.ar    1  UNL1        0.0000
     22 H          -2.3371    3.7188    4.3803 H       1  UNL1        0.0000
     23 C          -1.5308    3.7025    2.3978 C.ar    1  UNL1        0.0000
     24 H          -2.2484    4.4051    2.0025 H       1  UNL1        0.0000
     25 C          -0.5668    3.1496    1.5720 C.ar    1  UNL1        0.0000
     26 H          -0.5512    3.4143    0.5229 H       1  UNL1        0.0000
     27 C           4.5881    4.1838    1.8146 C.ar    1  UNL1        0.0000
     28 C           4.6356    4.2180    3.2266 C.ar    1  UNL1        0.0000
     29 C           5.7746    4.7840    3.8160 C.ar    1  UNL1        0.0000
     30 H           5.7997    4.8789    4.8926 H       1  UNL1        0.0000
     31 C           6.8461    5.2211    3.0631 C.ar    1  UNL1        0.0000
     32 H           7.7099    5.6437    3.5556 H       1  UNL1        0.0000
     33 C           6.8122    5.1210    1.6834 C.ar    1  UNL1        0.0000
     34 H           7.6488    5.4518    1.0870 H       1  UNL1        0.0000
     35 C           5.6778    4.6129    1.0741 C.ar    1  UNL1        0.0000
     36 H           5.6292    4.5672   -0.0060 H       1  UNL1        0.0000
     37 C           3.9568   -0.4514    1.2260 C.ar    1  UNL1        0.0000
     38 C           4.2655   -0.7655    2.5708 C.ar    1  UNL1        0.0000
     39 C           4.2492   -2.1239    2.9190 C.ar    1  UNL1        0.0000
     40 H           4.5727   -2.3984    3.9113 H       1  UNL1        0.0000
     41 C           3.8527   -3.1055    2.0341 C.ar    1  UNL1        0.0000
     42 H           3.8459   -4.1393    2.3490 H       1  UNL1        0.0000
     43 C           3.4710   -2.7709    0.7465 C.ar    1  UNL1        0.0000
     44 H           3.1476   -3.5300    0.0509 H       1  UNL1        0.0000
     45 C           3.5452   -1.4454    0.3533 C.ar    1  UNL1        0.0000
     46 H           3.3012   -1.1796   -0.6670 H       1  UNL1        0.0000
     47 C           0.3966   -1.6383    2.7312 C.3     1  UNL1        0.0000
     48 H          -0.3834   -1.1745    2.1337 H       1  UNL1        0.0000
     49 H           0.0515   -2.6328    2.9950 H       1  UNL1        0.0000
     50 H           1.2767   -1.7564    2.1053 H       1  UNL1        0.0000
     51 C          -0.8209   -0.7370    5.3696 C.3     1  UNL1        0.0000
     52 H          -0.7239   -0.2474    6.3349 H       1  UNL1        0.0000
     53 H          -1.0714   -1.7764    5.5565 H       1  UNL1        0.0000
     54 H          -1.6648   -0.2864    4.8569 H       1  UNL1        0.0000
     55 C           2.2075   -1.4209    5.2691 C.3     1  UNL1        0.0000
     56 H           3.0964   -0.7797    5.2561 H       1  UNL1        0.0000
     57 H           2.4553   -2.3724    4.8136 H       1  UNL1        0.0000
     58 H           1.9390   -1.6277    6.3002 H       1  UNL1        0.0000
     59 C           3.4736    6.3350    5.7003 C.3     1  UNL1        0.0000
     60 H           4.0823    5.9596    6.5178 H       1  UNL1        0.0000
     61 H           2.7623    7.0390    6.1203 H       1  UNL1        0.0000
     62 H           4.1248    6.8900    5.0321 H       1  UNL1        0.0000
     63 C           1.4234    5.8381    3.5063 C.3     1  UNL1        0.0000
     64 H           2.0040    6.3720    2.7592 H       1  UNL1        0.0000
     65 H           0.8003    6.5692    4.0111 H       1  UNL1        0.0000
     66 H           0.7606    5.1478    2.9917 H       1  UNL1        0.0000
     67 C           1.4701    3.9810    6.0003 C.3     1  UNL1        0.0000
     68 H           1.4914    2.9111    5.7764 H       1  UNL1        0.0000
     69 H           0.4458    4.3322    5.9453 H       1  UNL1        0.0000
     70 H           1.8069    4.1307    7.0209 H       1  UNL1        0.0000
     71 C           6.7636    1.7656    4.5962 C.3     1  UNL1        0.0000
     72 H           7.4753    2.0363    3.8223 H       1  UNL1        0.0000
     73 H           7.2559    1.9060    5.5519 H       1  UNL1        0.0000
     74 H           5.9209    2.4548    4.5266 H       1  UNL1        0.0000
     75 C           7.4272   -1.0378    3.4354 C.3     1  UNL1        0.0000
     76 H           7.0852   -2.0503    3.2516 H       1  UNL1        0.0000
     77 H           8.3563   -1.0975    3.9918 H       1  UNL1        0.0000
     78 H           7.6468   -0.5921    2.4705 H       1  UNL1        0.0000
     79 C           5.9075   -0.8134    6.1205 C.3     1  UNL1        0.0000
     80 H           5.0987   -0.3341    6.6672 H       1  UNL1        0.0000
     81 H           6.8154   -0.7052    6.7066 H       1  UNL1        0.0000
     82 H           5.6871   -1.8761    6.0671 H       1  UNL1        0.0000
@<TRIPOS>BOND
     1    46    45    1
     2    15    14    1
     3    36    35    1
     4    12    11    1
     5    44    43    1
     6     9     8    1
     7    45    43   ar
     8    45    37   ar
     9    26    25    1
    10    14    16    1
    11    14    37    1
    12    14     1    1
    13    43    41   ar
    14    35    33   ar
    15    35    27   ar
    16    34    33    1
    17     8    10    1
    18     8     1    1
    19     8    17    1
    20    11    13    1
    21    11     1    1
    22    11    27    1
    23    37    38   ar
    24    25    17   ar
    25    25    23   ar
    26    33    31   ar
    27    27    28   ar
    28    24    23    1
    29    41    42    1
    30    41    39   ar
    31    17    18   ar
    32    50    47    1
    33    48    47    1
    34    23    21   ar
    35    78    75    1
    36    38    39   ar
    37    38     7    1
    38    47    49    1
    39    47     2    1
    40    64    63    1
    41    39    40    1
    42    66    63    1
    43    31    32    1
    44    31    29   ar
    45    28    29   ar
    46    28     6    1
    47    76    75    1
    48    18     5    1
    49    18    19   ar
    50    75    77    1
    51    75     4    1
    52     7     4    1
    53    63    65    1
    54    63     3    1
    55    21    19   ar
    56    21    22    1
    57    29    30    1
    58    72    71    1
    59     5     2    1
    60     6     3    1
    61    19    20    1
    62     2    55    1
    63     2    51    1
    64     4    71    1
    65     4    79    1
    66    74    71    1
    67    71    73    1
    68     3    59    1
    69     3    67    1
    70    57    55    1
    71    54    51    1
    72    62    59    1
    73    56    55    1
    74    55    58    1
    75    51    53    1
    76    51    52    1
    77    59    61    1
    78    59    60    1
    79    68    67    1
    80    69    67    1
    81    67    70    1
    82    82    79    1
    83    79    80    1
    84    79    81    1
