@<TRIPOS>MOLECULE
1,2,3,4
 94 99 0 0 0
SMALL
GASTEIGER

@<TRIPOS>ATOM
      1 P           1.7696    8.2279    6.5433 P.3     1  UNL1       -0.0122
      2 N           2.0515    8.9472    3.6747 N.pl3   1  UNL1       -0.2460
      3 N           3.7018    6.3449    5.2718 N.pl3   1  UNL1       -0.2460
      4 N           4.3677    9.6126    6.2073 N.pl3   1  UNL1       -0.2460
      5 C           0.1569    8.9033    6.0227 C.ar    1  UNL1       -0.0099
      6 C          -0.7210    9.5528    6.8824 C.ar    1  UNL1       -0.0532
      7 H          -0.4488    9.7066    7.9179 H       1  UNL1        0.0624
      8 C          -1.9444    9.9979    6.4133 C.ar    1  UNL1       -0.0611
      9 H          -2.6254   10.5026    7.0826 H       1  UNL1        0.0618
     10 C          -2.2962    9.7833    5.0919 C.ar    1  UNL1       -0.0614
     11 H          -3.2583   10.1130    4.7291 H       1  UNL1        0.0618
     12 C          -1.4144    9.1543    4.2282 C.ar    1  UNL1       -0.0564
     13 H          -1.7039    8.9905    3.2001 H       1  UNL1        0.0621
     14 C          -0.1737    8.7256    4.6732 C.ar    1  UNL1       -0.0202
     15 C           0.8597    8.1187    3.7441 C.3     1  UNL1        0.0570
     16 H           1.1443    7.1239    4.1287 H       1  UNL1        0.0531
     17 H           0.4259    7.9516    2.7473 H       1  UNL1        0.0531
     18 C           2.0003   10.1118    2.9410 C.ar    1  UNL1        0.0486
     19 C           0.9281   10.4919    2.1196 C.ar    1  UNL1       -0.0362
     20 H           0.0567    9.8639    2.0280 H       1  UNL1        0.0639
     21 C           0.9585   11.6664    1.3875 C.ar    1  UNL1       -0.0484
     22 C           2.0710   12.4932    1.4564 C.ar    1  UNL1       -0.0558
     23 H           2.0949   13.4061    0.8794 H       1  UNL1        0.0623
     24 C           3.1507   12.1496    2.2594 C.ar    1  UNL1       -0.0484
     25 C           3.1022   10.9842    3.0036 C.ar    1  UNL1       -0.0362
     26 H           3.9607   10.7197    3.6228 H       1  UNL1        0.0639
     27 C          -0.1976   12.0427    0.5075 C.3     1  UNL1       -0.0396
     28 H           0.1013   12.0076   -0.5399 H       1  UNL1        0.0278
     29 H          -0.5273   13.0577    0.7244 H       1  UNL1        0.0278
     30 H          -1.0374   11.3665    0.6486 H       1  UNL1        0.0278
     31 C           4.3744   13.0134    2.3140 C.3     1  UNL1       -0.0396
     32 H           5.1482   12.5932    1.6714 H       1  UNL1        0.0278
     33 H           4.7779   13.0524    3.3235 H       1  UNL1        0.0278
     34 H           4.1561   14.0237    1.9755 H       1  UNL1        0.0278
     35 C           1.3192    6.5581    7.1231 C.ar    1  UNL1       -0.0099
     36 C           0.0271    6.1918    7.4810 C.ar    1  UNL1       -0.0532
     37 H          -0.7792    6.9086    7.4004 H       1  UNL1        0.0624
     38 C          -0.2250    4.9122    7.9434 C.ar    1  UNL1       -0.0611
     39 H          -1.2293    4.6292    8.2219 H       1  UNL1        0.0618
     40 C           0.8128    4.0034    8.0581 C.ar    1  UNL1       -0.0614
     41 H           0.6211    3.0097    8.4346 H       1  UNL1        0.0618
     42 C           2.0979    4.3601    7.6832 C.ar    1  UNL1       -0.0564
     43 H           2.8984    3.6409    7.7810 H       1  UNL1        0.0621
     44 C           2.3655    5.6297    7.1957 C.ar    1  UNL1       -0.0202
     45 C           3.7366    6.0356    6.6911 C.3     1  UNL1        0.0570
     46 H           4.0658    6.9351    7.2397 H       1  UNL1        0.0531
     47 H           4.4740    5.2514    6.9157 H       1  UNL1        0.0531
     48 C           3.6477    5.3046    4.3708 C.ar    1  UNL1        0.0486
     49 C           3.4590    5.6149    3.0115 C.ar    1  UNL1       -0.0362
     50 H           3.3596    6.6580    2.7091 H       1  UNL1        0.0639
     51 C           3.4470    4.6338    2.0360 C.ar    1  UNL1       -0.0484
     52 C           3.5844    3.3019    2.4049 C.ar    1  UNL1       -0.0558
     53 H           3.5664    2.5276    1.6519 H       1  UNL1        0.0623
     54 C           3.7483    2.9582    3.7394 C.ar    1  UNL1       -0.0484
     55 C           3.7805    3.9486    4.7060 C.ar    1  UNL1       -0.0362
     56 H           3.9284    3.6478    5.7307 H       1  UNL1        0.0639
     57 C           3.3103    5.0226    0.5949 C.3     1  UNL1       -0.0396
     58 H           2.9431    4.1910   -0.0022 H       1  UNL1        0.0278
     59 H           4.2820    5.3250    0.2041 H       1  UNL1        0.0278
     60 H           2.6383    5.8703    0.4829 H       1  UNL1        0.0278
     61 C           3.8998    1.5153    4.1240 C.3     1  UNL1       -0.0396
     62 H           3.0379    0.9402    3.7878 H       1  UNL1        0.0278
     63 H           3.9930    1.4017    5.2015 H       1  UNL1        0.0278
     64 H           4.7858    1.0909    3.6531 H       1  UNL1        0.0278
     65 C           2.0758    9.1202    8.1040 C.ar    1  UNL1       -0.0099
     66 C           1.5820    8.7057    9.3354 C.ar    1  UNL1       -0.0532
     67 H           1.0176    7.7857    9.4086 H       1  UNL1        0.0624
     68 C           1.8088    9.4733   10.4640 C.ar    1  UNL1       -0.0611
     69 H           1.4256    9.1500   11.4206 H       1  UNL1        0.0618
     70 C           2.5124   10.6610   10.3601 C.ar    1  UNL1       -0.0614
     71 H           2.6705   11.2729   11.2356 H       1  UNL1        0.0618
     72 C           3.0242   11.0645    9.1377 C.ar    1  UNL1       -0.0564
     73 H           3.5687   11.9959    9.0707 H       1  UNL1        0.0621
     74 C           2.8350   10.2923    8.0020 C.ar    1  UNL1       -0.0202
     75 C           3.4571   10.6480    6.6646 C.3     1  UNL1        0.0570
     76 H           2.6517   10.7604    5.9177 H       1  UNL1        0.0531
     77 H           3.9603   11.6245    6.7282 H       1  UNL1        0.0531
     78 C           5.5989    9.5054    6.8159 C.ar    1  UNL1        0.0486
     79 C           6.0850   10.3862    7.7918 C.ar    1  UNL1       -0.0362
     80 H           5.4919   11.2223    8.1248 H       1  UNL1        0.0639
     81 C           7.3420   10.2241    8.3533 C.ar    1  UNL1       -0.0484
     82 C           8.1495    9.1751    7.9434 C.ar    1  UNL1       -0.0558
     83 H           9.1311    9.0512    8.3770 H       1  UNL1        0.0623
     84 C           7.7018    8.2836    6.9751 C.ar    1  UNL1       -0.0484
     85 C           6.4384    8.4408    6.4361 C.ar    1  UNL1       -0.0362
     86 H           6.1039    7.7412    5.6693 H       1  UNL1        0.0639
     87 C           7.8262   11.2047    9.3813 C.3     1  UNL1       -0.0396
     88 H           8.2304   12.0908    8.8905 H       1  UNL1        0.0278
     89 H           8.6136   10.7689    9.9915 H       1  UNL1        0.0278
     90 H           7.0126   11.5221   10.0312 H       1  UNL1        0.0278
     91 C           8.5785    7.1671    6.4938 C.3     1  UNL1       -0.0396
     92 H           9.0502    7.4508    5.5530 H       1  UNL1        0.0278
     93 H           7.9951    6.2689    6.3048 H       1  UNL1        0.0278
     94 H           9.3597    6.9428    7.2165 H       1  UNL1        0.0278
@<TRIPOS>BOND
     1    28    27    1
     2    58    57    1
     3    59    57    1
     4    60    57    1
     5    27    30    1
     6    27    29    1
     7    27    21    1
     8    57    51    1
     9    23    22    1
    10    21    22   ar
    11    21    19   ar
    12    22    24   ar
    13    53    52    1
    14    32    31    1
    15    34    31    1
    16    20    19    1
    17    51    52   ar
    18    51    49   ar
    19    19    18   ar
    20    24    31    1
    21    24    25   ar
    22    31    33    1
    23    52    54   ar
    24    50    49    1
    25    17    15    1
    26    18    25   ar
    27    18     2    1
    28    25    26    1
    29    49    48   ar
    30    13    12    1
    31    64    61    1
    32     2    15    1
    33    54    61    1
    34    54    55   ar
    35    15    16    1
    36    15    14    1
    37    62    61    1
    38    61    63    1
    39    12    14   ar
    40    12    10   ar
    41    48    55   ar
    42    48     3    1
    43    14     5   ar
    44    55    56    1
    45    11    10    1
    46    10     8   ar
    47     3    45    1
    48    92    91    1
    49    86    85    1
    50    76    75    1
    51     5     1    1
    52     5     6   ar
    53     4    75    1
    54     4    78    1
    55    93    91    1
    56     8     6   ar
    57     8     9    1
    58    85    78   ar
    59    85    84   ar
    60    91    84    1
    61    91    94    1
    62     1    35    1
    63     1    65    1
    64    75    77    1
    65    75    74    1
    66    45    47    1
    67    45    44    1
    68    45    46    1
    69    78    79   ar
    70     6     7    1
    71    84    82   ar
    72    35    44   ar
    73    35    36   ar
    74    44    42   ar
    75    37    36    1
    76    36    38   ar
    77    42    43    1
    78    42    40   ar
    79    79    80    1
    80    79    81   ar
    81    38    40   ar
    82    38    39    1
    83    82    81   ar
    84    82    83    1
    85    74    65   ar
    86    74    72   ar
    87    40    41    1
    88    65    66   ar
    89    81    87    1
    90    88    87    1
    91    73    72    1
    92    72    70   ar
    93    66    67    1
    94    66    68   ar
    95    87    89    1
    96    87    90    1
    97    70    68   ar
    98    70    71    1
    99    68    69    1
