@<TRIPOS>MOLECULE
1,2,3,4
 94 99 0 0 0
SMALL
GASTEIGER

@<TRIPOS>ATOM
      1 P          13.3923   13.2873   13.7646 P.3     1  UNL1       -0.0122
      2 N          14.5544   10.6587   12.3739 N.pl3   1  UNL1       -0.2460
      3 N          16.2456   13.3872   12.6105 N.pl3   1  UNL1       -0.2460
      4 N          13.6611   14.5029   11.2011 N.pl3   1  UNL1       -0.2460
      5 C          14.2784   10.4755   13.7943 C.3     1  UNL1        0.0570
      6 H          14.8775   11.1755   14.4032 H       1  UNL1        0.0531
      7 H          14.5447    9.4614   14.1135 H       1  UNL1        0.0531
      8 C          16.0367   14.4902   13.5333 C.3     1  UNL1        0.0570
      9 H          15.1815   15.1030   13.2021 H       1  UNL1        0.0531
     10 H          16.9072   15.1535   13.5710 H       1  UNL1        0.0531
     11 C          12.2358   14.6626   11.4334 C.3     1  UNL1        0.0570
     12 H          11.7730   13.6632   11.4378 H       1  UNL1        0.0531
     13 H          11.7702   15.2269   10.6077 H       1  UNL1        0.0531
     14 C          12.8077   10.6581   14.1015 C.ar    1  UNL1       -0.0202
     15 C          12.2613   11.9452   14.2174 C.ar    1  UNL1       -0.0099
     16 C          10.8987   12.1099   14.4444 C.ar    1  UNL1       -0.0532
     17 H          10.4813   13.1060   14.5123 H       1  UNL1        0.0624
     18 C          10.0817   11.0023   14.5898 C.ar    1  UNL1       -0.0611
     19 H           9.0265   11.1338   14.7799 H       1  UNL1        0.0618
     20 C          10.6169    9.7290   14.4852 C.ar    1  UNL1       -0.0614
     21 H           9.9788    8.8643   14.5928 H       1  UNL1        0.0618
     22 C          11.9715    9.5602   14.2412 C.ar    1  UNL1       -0.0564
     23 H          12.3828    8.5645   14.1495 H       1  UNL1        0.0621
     24 C          15.7531   13.9873   14.9324 C.ar    1  UNL1       -0.0202
     25 C          14.5074   13.4117   15.2000 C.ar    1  UNL1       -0.0099
     26 C          14.2139   12.9152   16.4651 C.ar    1  UNL1       -0.0532
     27 H          13.2518   12.4565   16.6554 H       1  UNL1        0.0624
     28 C          15.1616   12.9992   17.4700 C.ar    1  UNL1       -0.0611
     29 H          14.9345   12.6205   18.4559 H       1  UNL1        0.0618
     30 C          16.4016   13.5591   17.2081 C.ar    1  UNL1       -0.0614
     31 H          17.1431   13.6126   17.9914 H       1  UNL1        0.0618
     32 C          16.6973   14.0483   15.9457 C.ar    1  UNL1       -0.0564
     33 H          17.6685   14.4771   15.7445 H       1  UNL1        0.0621
     34 C          11.8519   15.3103   12.7530 C.ar    1  UNL1       -0.0202
     35 C          12.3663   14.7798   13.9362 C.ar    1  UNL1       -0.0099
     36 C          12.0694   15.3612   15.1634 C.ar    1  UNL1       -0.0532
     37 H          12.4921   14.9512   16.0704 H       1  UNL1        0.0624
     38 C          11.2280   16.4570   15.2179 C.ar    1  UNL1       -0.0611
     39 H          10.9969   16.9135   16.1690 H       1  UNL1        0.0618
     40 C          10.6715   16.9581   14.0518 C.ar    1  UNL1       -0.0614
     41 H           9.9978   17.8014   14.0950 H       1  UNL1        0.0618
     42 C          10.9802   16.3878   12.8288 C.ar    1  UNL1       -0.0564
     43 H          10.5382   16.7857   11.9248 H       1  UNL1        0.0621
     44 C          14.9629    9.5075   11.7167 C.ar    1  UNL1        0.0486
     45 C          15.7986    8.5462   12.3131 C.ar    1  UNL1       -0.0362
     46 H          16.2097    8.7180   13.2995 H       1  UNL1        0.0639
     47 C          16.1722    7.3910   11.6500 C.ar    1  UNL1       -0.0484
     48 C          15.7018    7.1563   10.3644 C.ar    1  UNL1       -0.0558
     49 H          15.9804    6.2475    9.8506 H       1  UNL1        0.0623
     50 C          14.9031    8.0983    9.7319 C.ar    1  UNL1       -0.0484
     51 C          14.5501    9.2572   10.4022 C.ar    1  UNL1       -0.0362
     52 H          13.9638   10.0029    9.8887 H       1  UNL1        0.0639
     53 C          17.0874    6.3953   12.3027 C.3     1  UNL1       -0.0396
     54 H          17.9765    6.2431   11.6923 H       1  UNL1        0.0278
     55 H          16.5883    5.4323   12.4081 H       1  UNL1        0.0278
     56 H          17.3982    6.7346   13.2879 H       1  UNL1        0.0278
     57 C          14.4394    7.8807    8.3217 C.3     1  UNL1       -0.0396
     58 H          15.1088    8.3979    7.6354 H       1  UNL1        0.0278
     59 H          13.4369    8.2800    8.1781 H       1  UNL1        0.0278
     60 H          14.4390    6.8225    8.0694 H       1  UNL1        0.0278
     61 C          17.5645   13.0422   12.3504 C.ar    1  UNL1        0.0486
     62 C          18.5995   13.9747   12.2006 C.ar    1  UNL1       -0.0362
     63 H          18.3932   15.0340   12.2656 H       1  UNL1        0.0639
     64 C          19.8923   13.5735   11.9085 C.ar    1  UNL1       -0.0484
     65 C          20.1798   12.2202   11.7925 C.ar    1  UNL1       -0.0558
     66 H          21.1921   11.9067   11.5793 H       1  UNL1        0.0623
     67 C          19.1774   11.2703   11.9419 C.ar    1  UNL1       -0.0484
     68 C          17.8846   11.6864   12.2080 C.ar    1  UNL1       -0.0362
     69 H          17.0956   10.9539   12.3171 H       1  UNL1        0.0639
     70 C          20.9724   14.5933   11.6897 C.3     1  UNL1       -0.0396
     71 H          21.1739   14.6981   10.6233 H       1  UNL1        0.0278
     72 H          21.8973   14.2872   12.1748 H       1  UNL1        0.0278
     73 H          20.6773   15.5661   12.0757 H       1  UNL1        0.0278
     74 C          19.4976    9.8062   11.8639 C.3     1  UNL1       -0.0396
     75 H          18.6116    9.2360   11.5991 H       1  UNL1        0.0278
     76 H          19.8582    9.4530   12.8312 H       1  UNL1        0.0278
     77 H          20.2774    9.6170   11.1293 H       1  UNL1        0.0278
     78 C          14.3452   15.6492   10.8652 C.ar    1  UNL1        0.0486
     79 C          13.8084   16.9407   10.9853 C.ar    1  UNL1       -0.0362
     80 H          12.7980   17.0916   11.3275 H       1  UNL1        0.0639
     81 C          14.5530   18.0745   10.6983 C.ar    1  UNL1       -0.0484
     82 C          15.8646   17.9440   10.2802 C.ar    1  UNL1       -0.0558
     83 H          16.4555   18.8233   10.0654 H       1  UNL1        0.0623
     84 C          16.4252   16.6780   10.1263 C.ar    1  UNL1       -0.0484
     85 C          15.6736   15.5523   10.4016 C.ar    1  UNL1       -0.0362
     86 H          16.1006   14.5662   10.2461 H       1  UNL1        0.0639
     87 C          13.9195   19.4269   10.8602 C.3     1  UNL1       -0.0396
     88 H          13.0488   19.5209   10.2108 H       1  UNL1        0.0278
     89 H          14.6232   20.2176   10.6101 H       1  UNL1        0.0278
     90 H          13.5851   19.5717   11.8880 H       1  UNL1        0.0278
     91 C          17.8417   16.5583    9.6439 C.3     1  UNL1       -0.0396
     92 H          17.8871   16.7284    8.5678 H       1  UNL1        0.0278
     93 H          18.2386   15.5693    9.8507 H       1  UNL1        0.0278
     94 H          18.4728   17.3060   10.1228 H       1  UNL1        0.0278
@<TRIPOS>BOND
     1    58    57    1
     2    60    57    1
     3    59    57    1
     4    57    50    1
     5    92    91    1
     6    91    93    1
     7    91    94    1
     8    91    84    1
     9    50    48   ar
    10    50    51   ar
    11    49    48    1
    12    52    51    1
    13    83    82    1
    14    84    82   ar
    15    84    85   ar
    16    88    87    1
    17    86    85    1
    18    82    81   ar
    19    48    47   ar
    20    85    78   ar
    21    51    44   ar
    22    13    11    1
    23    89    87    1
    24    71    70    1
    25    81    87    1
    26    81    79   ar
    27    87    90    1
    28    78    79   ar
    29    78     4    1
    30    79    80    1
    31    77    74    1
    32     4    11    1
    33    11    12    1
    34    11    34    1
    35    66    65    1
    36    75    74    1
    37    47    53    1
    38    47    45   ar
    39    70    64    1
    40    70    73    1
    41    70    72    1
    42    54    53    1
    43    44    45   ar
    44    44     2    1
    45    65    64   ar
    46    65    67   ar
    47    74    67    1
    48    74    76    1
    49    64    62   ar
    50    43    42    1
    51    67    68   ar
    52    62    63    1
    53    62    61   ar
    54    68    69    1
    55    68    61   ar
    56    53    55    1
    57    53    56    1
    58    45    46    1
    59    61     3    1
    60     2     5    1
    61     3     8    1
    62    34    42   ar
    63    34    35   ar
    64    42    40   ar
    65     9     8    1
    66     8    10    1
    67     8    24    1
    68     1    35    1
    69     1    15    1
    70     1    25    1
    71     5    14    1
    72     5     7    1
    73     5     6    1
    74    35    36   ar
    75    40    41    1
    76    40    38   ar
    77    14    15   ar
    78    14    22   ar
    79    23    22    1
    80    15    16   ar
    81    22    20   ar
    82    16    17    1
    83    16    18   ar
    84    20    18   ar
    85    20    21    1
    86    18    19    1
    87    24    25   ar
    88    24    32   ar
    89    36    38   ar
    90    36    37    1
    91    25    26   ar
    92    38    39    1
    93    33    32    1
    94    32    30   ar
    95    26    27    1
    96    26    28   ar
    97    30    28   ar
    98    30    31    1
    99    28    29    1
