@<TRIPOS>MOLECULE
1,5,6,7
 73 75 0 0 0
SMALL
GASTEIGER

@<TRIPOS>ATOM
      1 P          -2.6783    4.0233   14.5317 P.3     1  UNL1        0.0000
      2 SI         -1.9135    4.3446   17.3064 Si      1  UNL1        0.0000
      3 SI         -1.9382    6.2666   12.8567 Si      1  UNL1        0.0000
      4 SI         -1.9384    1.4554   13.4143 Si      1  UNL1        0.0000
      5 N          -0.4802    4.7004   16.4432 N.pl3   1  UNL1        0.0000
      6 N          -0.5010    5.3456   12.9637 N.pl3   1  UNL1        0.0000
      7 N          -0.4944    2.0139   14.1414 N.pl3   1  UNL1        0.0000
      8 C          -3.3624    4.6998   16.0857 C.3     1  UNL1        0.0000
      9 H          -4.2915    4.2048   16.3639 H       1  UNL1        0.0000
     10 H          -3.5526    5.7648   15.9771 H       1  UNL1        0.0000
     11 C          -3.3804    5.0281   13.1757 C.3     1  UNL1        0.0000
     12 H          -4.3071    5.5145   13.4761 H       1  UNL1        0.0000
     13 H          -3.5794    4.4009   12.3103 H       1  UNL1        0.0000
     14 C          -3.3733    2.3430   14.3466 C.3     1  UNL1        0.0000
     15 H          -4.3078    2.3548   13.7878 H       1  UNL1        0.0000
     16 H          -3.5566    1.9054   15.3248 H       1  UNL1        0.0000
     17 C          -2.1157    5.4015   18.8911 C.3     1  UNL1        0.0000
     18 H          -1.2737    5.2351   19.5538 H       1  UNL1        0.0000
     19 H          -3.0186    5.1411   19.4316 H       1  UNL1        0.0000
     20 H          -2.1552    6.4633   18.6717 H       1  UNL1        0.0000
     21 C          -2.0510    2.4868   17.7989 C.3     1  UNL1        0.0000
     22 H          -1.8163    1.8528   16.9432 H       1  UNL1        0.0000
     23 H          -3.0404    2.2180   18.1564 H       1  UNL1        0.0000
     24 H          -1.3462    2.2489   18.5906 H       1  UNL1        0.0000
     25 C           0.7221    4.3801   17.0883 C.ar    1  UNL1        0.0000
     26 C           1.1872    3.0531   17.0814 C.ar    1  UNL1        0.0000
     27 H           0.5900    2.2902   16.5718 H       1  UNL1        0.0000
     28 C           2.3855    2.7296   17.6879 C.ar    1  UNL1        0.0000
     29 H           2.7416    1.7096   17.6636 H       1  UNL1        0.0000
     30 C           3.1376    3.7093   18.3197 C.ar    1  UNL1        0.0000
     31 H           4.0767    3.4536   18.7860 H       1  UNL1        0.0000
     32 C           2.6836    5.0166   18.3401 C.ar    1  UNL1        0.0000
     33 H           3.2683    5.7834   18.8274 H       1  UNL1        0.0000
     34 C           1.4844    5.3519   17.7380 C.ar    1  UNL1        0.0000
     35 H           1.1203    6.3709   17.7550 H       1  UNL1        0.0000
     36 C          -2.0599    7.6190   14.2239 C.3     1  UNL1        0.0000
     37 H          -1.8123    7.1920   15.1964 H       1  UNL1        0.0000
     38 H          -3.0487    8.0624   14.2919 H       1  UNL1        0.0000
     39 H          -1.3580    8.4245   14.0272 H       1  UNL1        0.0000
     40 C          -2.1620    7.1110   11.1520 C.3     1  UNL1        0.0000
     41 H          -1.3161    7.7583   10.9487 H       1  UNL1        0.0000
     42 H          -3.0586    7.7195   11.1230 H       1  UNL1        0.0000
     43 H          -2.2246    6.3898   10.3439 H       1  UNL1        0.0000
     44 C           0.6996    6.0655   12.8991 C.ar    1  UNL1        0.0000
     45 C           1.4428    6.1432   11.7205 C.ar    1  UNL1        0.0000
     46 H           1.0642    5.6493   10.8351 H       1  UNL1        0.0000
     47 C           2.6417    6.8323   11.6908 C.ar    1  UNL1        0.0000
     48 H           3.2115    6.8717   10.7737 H       1  UNL1        0.0000
     49 C           3.1143    7.4672   12.8262 C.ar    1  UNL1        0.0000
     50 H           4.0533    7.9985   12.7997 H       1  UNL1        0.0000
     51 C           2.3808    7.4098   14.0023 C.ar    1  UNL1        0.0000
     52 H           2.7513    7.8982   14.8922 H       1  UNL1        0.0000
     53 C           1.1827    6.7231   14.0443 C.ar    1  UNL1        0.0000
     54 H           0.5998    6.6635   14.9690 H       1  UNL1        0.0000
     55 C          -2.0876    1.9636   11.5616 C.3     1  UNL1        0.0000
     56 H          -1.8490    3.0210   11.4422 H       1  UNL1        0.0000
     57 H          -3.0807    1.7939   11.1566 H       1  UNL1        0.0000
     58 H          -1.3896    1.3957   10.9531 H       1  UNL1        0.0000
     59 C          -2.1517   -0.4443   13.5356 C.3     1  UNL1        0.0000
     60 H          -1.3176   -0.9393   13.0509 H       1  UNL1        0.0000
     61 H          -3.0616   -0.7756   13.0482 H       1  UNL1        0.0000
     62 H          -2.1831   -0.7868   14.5646 H       1  UNL1        0.0000
     63 C           0.6998    1.6107   13.5286 C.ar    1  UNL1        0.0000
     64 C           1.1596    2.2843   12.3830 C.ar    1  UNL1        0.0000
     65 H           0.5633    3.1120   11.9861 H       1  UNL1        0.0000
     66 C           2.3519    1.9185   11.7886 C.ar    1  UNL1        0.0000
     67 H           2.7045    2.4535   10.9184 H       1  UNL1        0.0000
     68 C           3.1023    0.8741   12.3089 C.ar    1  UNL1        0.0000
     69 H           4.0367    0.5962   11.8459 H       1  UNL1        0.0000
     70 C           2.6524    0.1975   13.4293 C.ar    1  UNL1        0.0000
     71 H           3.2353   -0.6144   13.8397 H       1  UNL1        0.0000
     72 C           1.4598    0.5543   14.0323 C.ar    1  UNL1        0.0000
     73 H           1.0994    0.0265   14.9056 H       1  UNL1        0.0000
@<TRIPOS>BOND
     1    43    40    1
     2    48    47    1
     3    46    45    1
     4    67    66    1
     5    41    40    1
     6    58    55    1
     7    42    40    1
     8    40     3    1
     9    57    55    1
    10    56    55    1
    11    55     4    1
    12    47    45   ar
    13    47    49   ar
    14    45    44   ar
    15    66    68   ar
    16    66    64   ar
    17    69    68    1
    18    65    64    1
    19    68    70   ar
    20    13    11    1
    21    64    63   ar
    22    50    49    1
    23    49    51   ar
    24     3     6    1
    25     3    11    1
    26     3    36    1
    27    44     6    1
    28    44    53   ar
    29    61    59    1
    30    60    59    1
    31    11    12    1
    32    11     1    1
    33     4    59    1
    34     4     7    1
    35     4    14    1
    36    70    71    1
    37    70    72   ar
    38    63    72   ar
    39    63     7    1
    40    59    62    1
    41    15    14    1
    42    51    53   ar
    43    51    52    1
    44    39    36    1
    45    72    73    1
    46    53    54    1
    47    36    38    1
    48    36    37    1
    49    14     1    1
    50    14    16    1
    51     1     8    1
    52    10     8    1
    53     8     9    1
    54     8     2    1
    55     5    25    1
    56     5     2    1
    57    27    26    1
    58    22    21    1
    59    26    25   ar
    60    26    28   ar
    61    25    34   ar
    62     2    21    1
    63     2    17    1
    64    29    28    1
    65    28    30   ar
    66    34    35    1
    67    34    32   ar
    68    21    23    1
    69    21    24    1
    70    30    32   ar
    71    30    31    1
    72    32    33    1
    73    20    17    1
    74    17    19    1
    75    17    18    1
