@<TRIPOS>MOLECULE
1,5,6,7
 73 75 0 0 0
SMALL
GASTEIGER

@<TRIPOS>ATOM
      1 P           1.7496    3.6799    3.8436 P.3     1  UNL1        0.0000
      2 SI          2.3798    6.5545    4.4443 Si      1  UNL1        0.0000
      3 SI         -1.0134    3.4167    3.0797 Si      1  UNL1        0.0000
      4 SI          3.4431    2.5107    5.8559 Si      1  UNL1        0.0000
      5 N           1.2008    6.2822    5.6722 N.pl3   1  UNL1        0.0000
      6 N          -0.7914    4.3982    4.4681 N.pl3   1  UNL1        0.0000
      7 N           2.3667    3.5891    6.6667 N.pl3   1  UNL1        0.0000
      8 C           2.0113    5.2877    3.0393 C.3     1  UNL1        0.0000
      9 H           1.0878    5.5568    2.5249 H       1  UNL1        0.0000
     10 H           2.8166    5.2166    2.3041 H       1  UNL1        0.0000
     11 C           0.7469    2.7390    2.6646 C.3     1  UNL1        0.0000
     12 H           0.8248    1.6769    2.8942 H       1  UNL1        0.0000
     13 H           1.0715    2.9089    1.6378 H       1  UNL1        0.0000
     14 C           3.4114    2.9624    3.9863 C.3     1  UNL1        0.0000
     15 H           4.1704    3.6865    3.7002 H       1  UNL1        0.0000
     16 H           3.5039    2.0793    3.3580 H       1  UNL1        0.0000
     17 C           4.1718    6.3001    5.0923 C.3     1  UNL1        0.0000
     18 H           4.4955    7.1496    5.6868 H       1  UNL1        0.0000
     19 H           4.8878    6.1803    4.2845 H       1  UNL1        0.0000
     20 H           4.2244    5.4182    5.7274 H       1  UNL1        0.0000
     21 C           2.2612    8.2720    3.5828 C.3     1  UNL1        0.0000
     22 H           1.3304    8.7743    3.8266 H       1  UNL1        0.0000
     23 H           2.3195    8.1890    2.5020 H       1  UNL1        0.0000
     24 H           3.0687    8.9223    3.8995 H       1  UNL1        0.0000
     25 C           0.7554    7.2599    6.5285 C.ar    1  UNL1        0.0000
     26 C           1.4448    8.4637    6.7383 C.ar    1  UNL1        0.0000
     27 H           2.3791    8.6252    6.2249 H       1  UNL1        0.0000
     28 C           0.9623    9.4263    7.6013 C.ar    1  UNL1        0.0000
     29 H           1.5203   10.3422    7.7362 H       1  UNL1        0.0000
     30 C          -0.2186    9.2279    8.2971 C.ar    1  UNL1        0.0000
     31 H          -0.5935    9.9845    8.9692 H       1  UNL1        0.0000
     32 C          -0.9043    8.0365    8.1240 C.ar    1  UNL1        0.0000
     33 H          -1.8227    7.8583    8.6654 H       1  UNL1        0.0000
     34 C          -0.4311    7.0687    7.2617 C.ar    1  UNL1        0.0000
     35 H          -0.9856    6.1408    7.1405 H       1  UNL1        0.0000
     36 C          -1.6771    4.4498    1.6040 C.3     1  UNL1        0.0000
     37 H          -2.6325    4.8892    1.8713 H       1  UNL1        0.0000
     38 H          -1.8327    3.8353    0.7239 H       1  UNL1        0.0000
     39 H          -1.0137    5.2635    1.3274 H       1  UNL1        0.0000
     40 C          -2.1641    1.8850    3.2090 C.3     1  UNL1        0.0000
     41 H          -1.8139    1.1755    3.9524 H       1  UNL1        0.0000
     42 H          -2.2161    1.3668    2.2566 H       1  UNL1        0.0000
     43 H          -3.1753    2.1782    3.4705 H       1  UNL1        0.0000
     44 C          -1.7650    5.3677    4.7207 C.ar    1  UNL1        0.0000
     45 C          -1.5431    6.7091    4.3835 C.ar    1  UNL1        0.0000
     46 H          -0.6131    6.9776    3.8999 H       1  UNL1        0.0000
     47 C          -2.4903    7.6757    4.6578 C.ar    1  UNL1        0.0000
     48 H          -2.2920    8.7066    4.4011 H       1  UNL1        0.0000
     49 C          -3.6951    7.3317    5.2495 C.ar    1  UNL1        0.0000
     50 H          -4.4320    8.0899    5.4676 H       1  UNL1        0.0000
     51 C          -3.9539    6.0020    5.5380 C.ar    1  UNL1        0.0000
     52 H          -4.9033    5.7183    5.9706 H       1  UNL1        0.0000
     53 C          -3.0082    5.0313    5.2682 C.ar    1  UNL1        0.0000
     54 H          -3.2191    3.9895    5.4687 H       1  UNL1        0.0000
     55 C           2.9600    0.6457    5.8470 C.3     1  UNL1        0.0000
     56 H           3.0322    0.1888    6.8287 H       1  UNL1        0.0000
     57 H           3.6067    0.0811    5.1810 H       1  UNL1        0.0000
     58 H           1.9352    0.5224    5.5007 H       1  UNL1        0.0000
     59 C           5.2610    2.6801    6.4576 C.3     1  UNL1        0.0000
     60 H           5.3489    3.4450    7.2226 H       1  UNL1        0.0000
     61 H           5.9415    2.9351    5.6514 H       1  UNL1        0.0000
     62 H           5.6093    1.7503    6.8935 H       1  UNL1        0.0000
     63 C           2.5256    3.7898    8.0229 C.ar    1  UNL1        0.0000
     64 C           3.1422    2.8538    8.8698 C.ar    1  UNL1        0.0000
     65 H           3.5270    1.9383    8.4481 H       1  UNL1        0.0000
     66 C           3.2635    3.0763   10.2268 C.ar    1  UNL1        0.0000
     67 H           3.7389    2.3266   10.8439 H       1  UNL1        0.0000
     68 C           2.7831    4.2414   10.8010 C.ar    1  UNL1        0.0000
     69 H           2.8759    4.4093   11.8631 H       1  UNL1        0.0000
     70 C           2.1916    5.1909    9.9835 C.ar    1  UNL1        0.0000
     71 H           1.8257    6.1176   10.4039 H       1  UNL1        0.0000
     72 C           2.0694    4.9747    8.6253 C.ar    1  UNL1        0.0000
     73 H           1.6364    5.7504    8.0050 H       1  UNL1        0.0000
@<TRIPOS>BOND
     1    38    36    1
     2    39    36    1
     3    36    37    1
     4    36     3    1
     5    13    11    1
     6    42    40    1
     7    10     8    1
     8    23    21    1
     9     9     8    1
    10    11    12    1
    11    11     3    1
    12    11     1    1
    13     8     1    1
    14     8     2    1
    15     3    40    1
    16     3     6    1
    17    40    43    1
    18    40    41    1
    19    16    14    1
    20    21    22    1
    21    21    24    1
    22    21     2    1
    23    15    14    1
    24     1    14    1
    25    46    45    1
    26    14     4    1
    27    19    17    1
    28    45    47   ar
    29    45    44   ar
    30    48    47    1
    31     2    17    1
    32     2     5    1
    33     6    44    1
    34    47    49   ar
    35    44    53   ar
    36    17    18    1
    37    17    20    1
    38    57    55    1
    39    49    50    1
    40    49    51   ar
    41    53    54    1
    42    53    51   ar
    43    58    55    1
    44    51    52    1
    45    61    59    1
    46     5    25    1
    47    55     4    1
    48    55    56    1
    49     4    59    1
    50     4     7    1
    51    27    26    1
    52    59    62    1
    53    59    60    1
    54    25    26   ar
    55    25    34   ar
    56     7    63    1
    57    26    28   ar
    58    35    34    1
    59    34    32   ar
    60    28    29    1
    61    28    30   ar
    62    73    72    1
    63    63    72   ar
    64    63    64   ar
    65    32    30   ar
    66    32    33    1
    67    30    31    1
    68    65    64    1
    69    72    70   ar
    70    64    66   ar
    71    70    71    1
    72    70    68   ar
    73    66    68   ar
    74    66    67    1
    75    68    69    1
