@<TRIPOS>MOLECULE
1,5,6,7
 73 75 0 0 0
SMALL
GASTEIGER

@<TRIPOS>ATOM
      1 P           2.1784    6.3834    3.6915 P.3     1  UNL1        0.0000
      2 SI          4.3771    5.3564    2.0620 Si      1  UNL1        0.0000
      3 SI          2.5888    5.9911    6.5577 Si      1  UNL1        0.0000
      4 SI         -0.4537    5.5232    2.7523 Si      1  UNL1        0.0000
      5 N           4.0694    4.0633    3.1585 N.pl3   1  UNL1        0.0000
      6 N           1.9172    4.4869    6.0524 N.pl3   1  UNL1        0.0000
      7 N           0.4592    4.0618    2.7465 N.pl3   1  UNL1        0.0000
      8 C           3.7502    6.9515    2.9464 C.3     1  UNL1        0.0000
      9 H           4.4301    7.2659    3.7367 H       1  UNL1        0.0000
     10 H           3.5870    7.7889    2.2690 H       1  UNL1        0.0000
     11 C           1.9828    7.2909    5.2682 C.3     1  UNL1        0.0000
     12 H           0.9322    7.5386    5.4123 H       1  UNL1        0.0000
     13 H           2.5650    8.2118    5.2705 H       1  UNL1        0.0000
     14 C           0.8352    6.9479    2.5844 C.3     1  UNL1        0.0000
     15 H           1.2163    7.0263    1.5674 H       1  UNL1        0.0000
     16 H           0.4510    7.9198    2.8920 H       1  UNL1        0.0000
     17 C           6.2278    5.5271    1.6400 C.3     1  UNL1        0.0000
     18 H           6.3900    6.2944    0.8917 H       1  UNL1        0.0000
     19 H           6.5990    4.5893    1.2441 H       1  UNL1        0.0000
     20 H           6.8275    5.7756    2.5086 H       1  UNL1        0.0000
     21 C           3.3451    5.1473    0.4544 C.3     1  UNL1        0.0000
     22 H           2.3279    4.8431    0.7009 H       1  UNL1        0.0000
     23 H           3.7716    4.3773   -0.1822 H       1  UNL1        0.0000
     24 H           3.2936    6.0609   -0.1312 H       1  UNL1        0.0000
     25 C           4.8888    2.9286    3.0356 C.ar    1  UNL1        0.0000
     26 C           4.5465    1.9026    2.1539 C.ar    1  UNL1        0.0000
     27 H           3.6175    1.9855    1.6049 H       1  UNL1        0.0000
     28 C           5.3676    0.8020    2.0105 C.ar    1  UNL1        0.0000
     29 H           5.0965    0.0150    1.3219 H       1  UNL1        0.0000
     30 C           6.5426    0.7025    2.7397 C.ar    1  UNL1        0.0000
     31 H           7.1834   -0.1588    2.6243 H       1  UNL1        0.0000
     32 C           6.8864    1.7129    3.6207 C.ar    1  UNL1        0.0000
     33 H           7.7976    1.6405    4.1972 H       1  UNL1        0.0000
     34 C           6.0712    2.8212    3.7641 C.ar    1  UNL1        0.0000
     35 H           6.3433    3.6155    4.4449 H       1  UNL1        0.0000
     36 C           2.0216    6.4895    8.3076 C.3     1  UNL1        0.0000
     37 H           0.9511    6.6527    8.3636 H       1  UNL1        0.0000
     38 H           2.5154    7.3967    8.6363 H       1  UNL1        0.0000
     39 H           2.2690    5.7009    9.0084 H       1  UNL1        0.0000
     40 C           4.5081    5.9446    6.4716 C.3     1  UNL1        0.0000
     41 H           4.9191    5.3754    7.3006 H       1  UNL1        0.0000
     42 H           4.9525    6.9355    6.5066 H       1  UNL1        0.0000
     43 H           4.8288    5.4599    5.5496 H       1  UNL1        0.0000
     44 C           1.7244    3.5198    7.0533 C.ar    1  UNL1        0.0000
     45 C           2.7528    2.6399    7.3927 C.ar    1  UNL1        0.0000
     46 H           3.6798    2.6941    6.8369 H       1  UNL1        0.0000
     47 C           2.5737    1.7111    8.3985 C.ar    1  UNL1        0.0000
     48 H           3.3775    1.0373    8.6576 H       1  UNL1        0.0000
     49 C           1.3707    1.6415    9.0843 C.ar    1  UNL1        0.0000
     50 H           1.2345    0.9153    9.8715 H       1  UNL1        0.0000
     51 C           0.3437    2.5065    8.7497 C.ar    1  UNL1        0.0000
     52 H          -0.5991    2.4551    9.2754 H       1  UNL1        0.0000
     53 C           0.5191    3.4435    7.7473 C.ar    1  UNL1        0.0000
     54 H          -0.2789    4.1263    7.4912 H       1  UNL1        0.0000
     55 C          -1.7062    5.6046    1.3179 C.3     1  UNL1        0.0000
     56 H          -1.2223    5.6059    0.3475 H       1  UNL1        0.0000
     57 H          -2.3217    6.4943    1.3851 H       1  UNL1        0.0000
     58 H          -2.3600    4.7414    1.3559 H       1  UNL1        0.0000
     59 C          -1.3537    5.7579    4.4341 C.3     1  UNL1        0.0000
     60 H          -2.2158    5.1009    4.5064 H       1  UNL1        0.0000
     61 H          -1.7073    6.7747    4.5805 H       1  UNL1        0.0000
     62 H          -0.6819    5.5094    5.2555 H       1  UNL1        0.0000
     63 C          -0.2136    2.9068    2.3131 C.ar    1  UNL1        0.0000
     64 C          -0.9381    2.1304    3.2183 C.ar    1  UNL1        0.0000
     65 H          -0.9301    2.4163    4.2621 H       1  UNL1        0.0000
     66 C          -1.6256    1.0135    2.7868 C.ar    1  UNL1        0.0000
     67 H          -2.1876    0.4215    3.4944 H       1  UNL1        0.0000
     68 C          -1.6056    0.6498    1.4491 C.ar    1  UNL1        0.0000
     69 H          -2.1455   -0.2233    1.1145 H       1  UNL1        0.0000
     70 C          -0.8845    1.4110    0.5459 C.ar    1  UNL1        0.0000
     71 H          -0.8588    1.1311   -0.4976 H       1  UNL1        0.0000
     72 C          -0.1989    2.5348    0.9709 C.ar    1  UNL1        0.0000
     73 H           0.3570    3.1356    0.2649 H       1  UNL1        0.0000
@<TRIPOS>BOND
     1    71    70    1
     2    23    21    1
     3    24    21    1
     4    73    72    1
     5    56    55    1
     6    21    22    1
     7    21     2    1
     8    70    72   ar
     9    70    68   ar
    10    18    17    1
    11    72    63   ar
    12    69    68    1
    13    19    17    1
    14    55    58    1
    15    55    57    1
    16    55     4    1
    17    29    28    1
    18    68    66   ar
    19    15    14    1
    20    27    26    1
    21    17     2    1
    22    17    20    1
    23    28    26   ar
    24    28    30   ar
    25     2     8    1
    26     2     5    1
    27    26    25   ar
    28    10     8    1
    29    63     7    1
    30    63    64   ar
    31    14     4    1
    32    14    16    1
    33    14     1    1
    34    31    30    1
    35    30    32   ar
    36     7     4    1
    37     4    59    1
    38    66    64   ar
    39    66    67    1
    40     8     1    1
    41     8     9    1
    42    25     5    1
    43    25    34   ar
    44    64    65    1
    45    32    34   ar
    46    32    33    1
    47     1    11    1
    48    34    35    1
    49    59    60    1
    50    59    61    1
    51    59    62    1
    52    11    13    1
    53    11    12    1
    54    11     3    1
    55    43    40    1
    56     6     3    1
    57     6    44    1
    58    40    42    1
    59    40     3    1
    60    40    41    1
    61     3    36    1
    62    46    45    1
    63    44    45   ar
    64    44    53   ar
    65    45    47   ar
    66    54    53    1
    67    53    51   ar
    68    36    37    1
    69    36    38    1
    70    36    39    1
    71    47    48    1
    72    47    49   ar
    73    51    49   ar
    74    51    52    1
    75    49    50    1
