@<TRIPOS>MOLECULE
1,3,4,5
 142 149 0 0 0
SMALL
GASTEIGER

@<TRIPOS>ATOM
      1 P           7.2178   12.9259    6.6163 P.3     1  UNL1        0.0000
      2 SI          5.1997   10.8857    5.5637 Si      1  UNL1        0.0000
      3 N           6.5373    9.8888    5.2530 N.pl3   1  UNL1        0.0000
      4 N          10.0418   11.1458    4.1305 N.pl3   1  UNL1        0.0000
      5 N           8.1591   12.2803    3.8552 N.pl3   1  UNL1        0.0000
      6 C           6.4448    8.6151    4.6854 C.ar    1  UNL1        0.0000
      7 C           6.4569    7.4659    5.5027 C.ar    1  UNL1        0.0000
      8 C           6.4565    6.2049    4.9275 C.ar    1  UNL1        0.0000
      9 H           6.4716    5.3296    5.5612 H       1  UNL1        0.0000
     10 C           6.4162    6.0440    3.5561 C.ar    1  UNL1        0.0000
     11 H           6.4227    5.0558    3.1195 H       1  UNL1        0.0000
     12 C           6.3255    7.1651    2.7525 C.ar    1  UNL1        0.0000
     13 H           6.2327    7.0385    1.6830 H       1  UNL1        0.0000
     14 C           6.3256    8.4436    3.2877 C.ar    1  UNL1        0.0000
     15 C           6.1183    9.6250    2.3688 C.3     1  UNL1        0.0000
     16 H           6.1958   10.5371    2.9668 H       1  UNL1        0.0000
     17 C           7.1528    9.7107    1.2456 C.3     1  UNL1        0.0000
     18 H           8.1446    9.8971    1.6512 H       1  UNL1        0.0000
     19 H           6.8991   10.5348    0.5822 H       1  UNL1        0.0000
     20 H           7.1816    8.7954    0.6590 H       1  UNL1        0.0000
     21 C           4.7080    9.5729    1.7739 C.3     1  UNL1        0.0000
     22 H           4.6043    8.7271    1.0975 H       1  UNL1        0.0000
     23 H           4.5039   10.4886    1.2230 H       1  UNL1        0.0000
     24 H           3.9690    9.4734    2.5649 H       1  UNL1        0.0000
     25 C           6.3975    7.5959    7.0064 C.3     1  UNL1        0.0000
     26 H           6.4430    8.6649    7.2429 H       1  UNL1        0.0000
     27 C           7.5551    6.8781    7.7027 C.3     1  UNL1        0.0000
     28 H           7.5238    5.8095    7.5042 H       1  UNL1        0.0000
     29 H           7.4896    7.0212    8.7804 H       1  UNL1        0.0000
     30 H           8.5104    7.2605    7.3517 H       1  UNL1        0.0000
     31 C           5.0581    7.0644    7.5211 C.3     1  UNL1        0.0000
     32 H           4.2389    7.5687    7.0150 H       1  UNL1        0.0000
     33 H           4.9626    7.2477    8.5897 H       1  UNL1        0.0000
     34 H           4.9720    5.9951    7.3420 H       1  UNL1        0.0000
     35 C          11.2906   10.6081    3.7782 C.ar    1  UNL1        0.0000
     36 C          11.3202    9.2349    3.4553 C.ar    1  UNL1        0.0000
     37 C          12.5330    8.6300    3.1697 C.ar    1  UNL1        0.0000
     38 H          12.5628    7.5779    2.9301 H       1  UNL1        0.0000
     39 C          13.7088    9.3574    3.1734 C.ar    1  UNL1        0.0000
     40 H          14.6450    8.8785    2.9279 H       1  UNL1        0.0000
     41 C          13.6783   10.6965    3.5056 C.ar    1  UNL1        0.0000
     42 H          14.6016   11.2556    3.5230 H       1  UNL1        0.0000
     43 C          12.4890   11.3374    3.8271 C.ar    1  UNL1        0.0000
     44 C          12.5357   12.7729    4.2967 C.3     1  UNL1        0.0000
     45 H          11.5150   13.1078    4.5132 H       1  UNL1        0.0000
     46 C          13.3536   12.8628    5.5890 C.3     1  UNL1        0.0000
     47 H          12.9748   12.1605    6.3290 H       1  UNL1        0.0000
     48 H          13.3039   13.8722    5.9916 H       1  UNL1        0.0000
     49 H          14.3980   12.6229    5.4021 H       1  UNL1        0.0000
     50 C          13.1464   13.6994    3.2436 C.3     1  UNL1        0.0000
     51 H          14.2115   13.5078    3.1341 H       1  UNL1        0.0000
     52 H          13.0148   14.7374    3.5411 H       1  UNL1        0.0000
     53 H          12.6739   13.5547    2.2771 H       1  UNL1        0.0000
     54 C          10.0453    8.4140    3.4356 C.3     1  UNL1        0.0000
     55 H           9.1758    9.0960    3.4734 H       1  UNL1        0.0000
     56 C           9.9292    7.5667    2.1675 C.3     1  UNL1        0.0000
     57 H          10.1003    8.1696    1.2779 H       1  UNL1        0.0000
     58 H           8.9319    7.1365    2.1100 H       1  UNL1        0.0000
     59 H          10.6505    6.7529    2.1729 H       1  UNL1        0.0000
     60 C           9.9635    7.5146    4.6743 C.3     1  UNL1        0.0000
     61 H          10.8725    6.9248    4.7855 H       1  UNL1        0.0000
     62 H           9.1143    6.8401    4.5843 H       1  UNL1        0.0000
     63 H           9.8213    8.1233    5.5686 H       1  UNL1        0.0000
     64 C           9.3766   12.0305    3.3887 C.3     1  UNL1        0.0000
     65 C           9.9753   12.6843    2.2016 C.ar    1  UNL1        0.0000
     66 C          10.5457   11.9435    1.1721 C.ar    1  UNL1        0.0000
     67 H          10.5509   10.8647    1.2219 H       1  UNL1        0.0000
     68 C          11.0868   12.5877    0.0729 C.ar    1  UNL1        0.0000
     69 H          11.5215   12.0057   -0.7265 H       1  UNL1        0.0000
     70 C          11.0706   13.9701   -0.0041 C.ar    1  UNL1        0.0000
     71 H          11.4915   14.4686   -0.8648 H       1  UNL1        0.0000
     72 C          10.5158   14.7127    1.0271 C.ar    1  UNL1        0.0000
     73 H          10.5078   15.7914    0.9734 H       1  UNL1        0.0000
     74 C           9.9725   14.0762    2.1261 C.ar    1  UNL1        0.0000
     75 H           9.5380   14.6464    2.9341 H       1  UNL1        0.0000
     76 C           7.0699   12.8450    3.2132 C.ar    1  UNL1        0.0000
     77 C           7.0041   13.0818    1.8354 C.ar    1  UNL1        0.0000
     78 H           7.8690   12.8945    1.2195 H       1  UNL1        0.0000
     79 C           5.8376   13.5053    1.2318 C.ar    1  UNL1        0.0000
     80 H           5.8219   13.6698    0.1633 H       1  UNL1        0.0000
     81 C           4.6947   13.6914    1.9883 C.ar    1  UNL1        0.0000
     82 H           3.7716   14.0017    1.5225 H       1  UNL1        0.0000
     83 C           4.7448   13.4648    3.3491 C.ar    1  UNL1        0.0000
     84 H           3.8510   13.6033    3.9406 H       1  UNL1        0.0000
     85 C           5.9096   13.0598    3.9917 C.ar    1  UNL1        0.0000
     86 C           5.7956   12.7408    5.4416 C.3     1  UNL1        0.0000
     87 H           4.9641   13.3280    5.8492 H       1  UNL1        0.0000
     88 C           4.4081   10.5823    7.2734 C.ar    1  UNL1        0.0000
     89 C           3.1491    9.9995    7.3642 C.ar    1  UNL1        0.0000
     90 H           2.6136    9.7716    6.4536 H       1  UNL1        0.0000
     91 C           2.5721    9.7105    8.5881 C.ar    1  UNL1        0.0000
     92 H           1.5906    9.2595    8.6312 H       1  UNL1        0.0000
     93 C           3.2540    9.9944    9.7590 C.ar    1  UNL1        0.0000
     94 H           2.8092    9.7664   10.7172 H       1  UNL1        0.0000
     95 C           4.5092   10.5750    9.6924 C.ar    1  UNL1        0.0000
     96 H           5.0483   10.8019   10.6024 H       1  UNL1        0.0000
     97 C           5.0724   10.8642    8.4625 C.ar    1  UNL1        0.0000
     98 H           6.0505   11.3301    8.4220 H       1  UNL1        0.0000
     99 C           8.2286   14.3698    6.1970 C.ar    1  UNL1        0.0000
    100 C           9.4618   14.4656    6.9000 C.ar    1  UNL1        0.0000
    101 C          10.4542   15.3262    6.4545 C.ar    1  UNL1        0.0000
    102 H          11.3849   15.3923    6.9999 H       1  UNL1        0.0000
    103 C          10.2459   16.1464    5.3591 C.ar    1  UNL1        0.0000
    104 H          11.0339   16.7917    4.9992 H       1  UNL1        0.0000
    105 C           8.9822   16.2059    4.8051 C.ar    1  UNL1        0.0000
    106 H           8.7653   16.9534    4.0550 H       1  UNL1        0.0000
    107 C           7.9535   15.3713    5.2369 C.ar    1  UNL1        0.0000
    108 C           6.5954   15.7192    4.8076 C.ar    1  UNL1        0.0000
    109 C           6.3249   16.1754    3.5194 C.ar    1  UNL1        0.0000
    110 H           7.0929   16.1291    2.7605 H       1  UNL1        0.0000
    111 C           5.0688   16.6476    3.1799 C.ar    1  UNL1        0.0000
    112 C           4.0708   16.6663    4.1463 C.ar    1  UNL1        0.0000
    113 H           3.0874   17.0333    3.8856 H       1  UNL1        0.0000
    114 C           4.3140   16.2224    5.4375 C.ar    1  UNL1        0.0000
    115 C           5.5815   15.7621    5.7596 C.ar    1  UNL1        0.0000
    116 H           5.7984   15.4508    6.7739 H       1  UNL1        0.0000
    117 C           3.2375   16.2407    6.4823 C.3     1  UNL1        0.0000
    118 H           3.0936   15.2433    6.8977 H       1  UNL1        0.0000
    119 H           2.2937   16.5836    6.0652 H       1  UNL1        0.0000
    120 H           3.5154   16.9033    7.3017 H       1  UNL1        0.0000
    121 C           4.7990   17.1548    1.7949 C.3     1  UNL1        0.0000
    122 H           5.3808   16.5981    1.0637 H       1  UNL1        0.0000
    123 H           5.0772   18.2073    1.7208 H       1  UNL1        0.0000
    124 H           3.7436   17.0675    1.5476 H       1  UNL1        0.0000
    125 C           9.6832   13.7830    8.1860 C.ar    1  UNL1        0.0000
    126 C           8.6784   13.7654    9.1524 C.ar    1  UNL1        0.0000
    127 H           7.7208   14.2152    8.9300 H       1  UNL1        0.0000
    128 C           8.8922   13.2212   10.4103 C.ar    1  UNL1        0.0000
    129 C          10.1474   12.7127   10.7213 C.ar    1  UNL1        0.0000
    130 H          10.3281   12.3007   11.7050 H       1  UNL1        0.0000
    131 C          11.1802   12.7508    9.7940 C.ar    1  UNL1        0.0000
    132 C          10.9359   13.2792    8.5344 C.ar    1  UNL1        0.0000
    133 H          11.7394   13.3190    7.8147 H       1  UNL1        0.0000
    134 C          12.5474   12.2516   10.1614 C.3     1  UNL1        0.0000
    135 H          12.4861   11.3798   10.8105 H       1  UNL1        0.0000
    136 H          13.0899   13.0281   10.7015 H       1  UNL1        0.0000
    137 H          13.1258   11.9943    9.2763 H       1  UNL1        0.0000
    138 C           7.7878   13.2136   11.4238 C.3     1  UNL1        0.0000
    139 H           7.7675   14.1625   11.9604 H       1  UNL1        0.0000
    140 H           7.9316   12.4179   12.1516 H       1  UNL1        0.0000
    141 H           6.8232   13.0830   10.9383 H       1  UNL1        0.0000
    142 H           4.0603   10.7911    4.6217 H       1  UNL1        0.0000
@<TRIPOS>BOND
     1    71    70    1
     2    69    68    1
     3    70    68   ar
     4    70    72   ar
     5    68    66   ar
     6    80    79    1
     7    19    17    1
     8    20    17    1
     9    73    72    1
    10    72    74   ar
    11   122   121    1
    12    22    21    1
    13    66    67    1
    14    66    65   ar
    15    78    77    1
    16    23    21    1
    17    79    77   ar
    18    79    81   ar
    19    17    18    1
    20    17    15    1
    21    57    56    1
    22    82    81    1
    23   124   121    1
    24    13    12    1
    25   123   121    1
    26    21    15    1
    27    21    24    1
    28   121   111    1
    29    77    76   ar
    30    81    83   ar
    31    58    56    1
    32    74    65   ar
    33    74    75    1
    34    56    59    1
    35    56    54    1
    36    65    64    1
    37    53    50    1
    38    15    16    1
    39    15    14    1
    40    12    14   ar
    41    12    10   ar
    42   110   109    1
    43    40    39    1
    44    38    37    1
    45    11    10    1
    46    51    50    1
    47    37    39   ar
    48    37    36   ar
    49    39    41   ar
    50   111   109   ar
    51   111   112   ar
    52    76     5    1
    53    76    85   ar
    54    50    52    1
    55    50    44    1
    56    14     6   ar
    57    83    84    1
    58    83    85   ar
    59    64     5    1
    60    64     4    1
    61    54    36    1
    62    54    55    1
    63    54    60    1
    64    36    35   ar
    65    41    42    1
    66    41    43   ar
    67   109   108   ar
    68    10     8   ar
    69    35    43   ar
    70    35     4    1
    71    43    44    1
    72   113   112    1
    73    85    86    1
    74   106   105    1
    75   112   114   ar
    76    44    45    1
    77    44    46    1
    78    62    60    1
    79   142     2    1
    80    60    61    1
    81    60    63    1
    82     6     3    1
    83     6     7   ar
    84   105   107   ar
    85   105   103   ar
    86   108   107    1
    87   108   115   ar
    88     8     7   ar
    89     8     9    1
    90   104   103    1
    91   107    99   ar
    92     3     2    1
    93   103   101   ar
    94    49    46    1
    95   114   115   ar
    96   114   117    1
    97    86     2    1
    98    86    87    1
    99    86     1    1
   100     7    25    1
   101     2    88    1
   102    46    48    1
   103    46    47    1
   104   115   116    1
   105   119   117    1
   106    99     1    1
   107    99   100   ar
   108    90    89    1
   109   101   100   ar
   110   101   102    1
   111   117   118    1
   112   117   120    1
   113   100   125    1
   114    25    26    1
   115    25    31    1
   116    25    27    1
   117    32    31    1
   118    88    89   ar
   119    88    97   ar
   120    34    31    1
   121    30    27    1
   122    89    91   ar
   123    28    27    1
   124    31    33    1
   125    27    29    1
   126   133   132    1
   127   125   132   ar
   128   125   126   ar
   129    98    97    1
   130    97    95   ar
   131   132   131   ar
   132    91    92    1
   133    91    93   ar
   134   127   126    1
   135   126   128   ar
   136   137   134    1
   137    95    93   ar
   138    95    96    1
   139    93    94    1
   140   131   134    1
   141   131   129   ar
   142   134   136    1
   143   134   135    1
   144   128   129   ar
   145   128   138    1
   146   129   130    1
   147   141   138    1
   148   138   139    1
   149   138   140    1
