@<TRIPOS>MOLECULE
1,8,9,16
 50 52 0 0 0
SMALL
GASTEIGER

@<TRIPOS>ATOM
      1 O          13.3504   17.2546   19.2523 O.3     1  UNL1       -0.2873
      2 C          14.2824   17.8900   18.5299 C.ar    1  UNL1        0.1870
      3 C          14.0478   19.2341   18.1629 C.ar    1  UNL1        0.0156
      4 C          14.9463   19.9428   17.3818 C.ar    1  UNL1       -0.0500
      5 C          16.1231   19.3570   16.9423 C.ar    1  UNL1       -0.0412
      6 C          16.3659   18.0454   17.3369 C.ar    1  UNL1       -0.0507
      7 C          15.4996   17.2931   18.1168 C.ar    1  UNL1        0.0052
      8 C          12.7943   19.8697   18.6384 C.3     1  UNL1        0.0603
      9 C          12.6274   20.6059   19.8530 C.2     1  UNL1       -0.0672
     10 C          11.3118   21.0899   19.9306 C.2     1  UNL1       -0.0570
     11 C          10.6251   20.6813   18.7634 C.ar    1  UNL1       -0.0209
     12 C           9.3275   20.9289   18.2881 C.ar    1  UNL1       -0.0543
     13 C           8.9836   20.5038   17.0299 C.ar    1  UNL1       -0.0612
     14 C           9.9053   19.8317   16.2087 C.ar    1  UNL1       -0.0614
     15 C          11.1705   19.5361   16.6503 C.ar    1  UNL1       -0.0568
     16 C          11.5515   19.9422   17.9395 C.ar    1  UNL1       -0.0244
     17 C          17.1370   20.0749   16.0640 C.3     1  UNL1       -0.0127
     18 C          18.4861   20.1442   16.7937 C.3     1  UNL1       -0.0560
     19 C          16.7045   21.5038   15.7250 C.3     1  UNL1       -0.0560
     20 C          17.2994   19.3015   14.7479 C.3     1  UNL1       -0.0560
     21 C          15.8482   15.8568   18.5030 C.3     1  UNL1       -0.0090
     22 C          15.8002   15.7146   20.0307 C.3     1  UNL1       -0.0559
     23 C          17.2423   15.4159   18.0429 C.3     1  UNL1       -0.0559
     24 C          14.8194   14.9197   17.8620 C.3     1  UNL1       -0.0559
     25 H          14.6895   20.9591   17.1291 H       1  UNL1        0.0625
     26 H          17.2834   17.5878   17.0100 H       1  UNL1        0.0625
     27 H          13.4475   20.9304   20.4825 H       1  UNL1        0.0585
     28 H          10.9262   21.7570   20.6860 H       1  UNL1        0.0621
     29 H           8.6199   21.4716   18.9005 H       1  UNL1        0.0624
     30 H           7.9908   20.7013   16.6500 H       1  UNL1        0.0618
     31 H           9.6080   19.5584   15.2058 H       1  UNL1        0.0618
     32 H          11.8836   19.0323   16.0102 H       1  UNL1        0.0621
     33 H          18.8737   19.1512   17.0040 H       1  UNL1        0.0238
     34 H          18.3748   20.6742   17.7375 H       1  UNL1        0.0238
     35 H          19.2168   20.6725   16.1845 H       1  UNL1        0.0238
     36 H          17.4554   21.9709   15.0904 H       1  UNL1        0.0238
     37 H          16.6025   22.1049   16.6252 H       1  UNL1        0.0238
     38 H          15.7595   21.5066   15.1878 H       1  UNL1        0.0238
     39 H          18.0018   19.8138   14.0931 H       1  UNL1        0.0238
     40 H          16.3413   19.2280   14.2383 H       1  UNL1        0.0238
     41 H          17.6694   18.2952   14.9233 H       1  UNL1        0.0238
     42 H          16.6280   16.2634   20.4768 H       1  UNL1        0.0238
     43 H          15.8922   14.6673   20.3170 H       1  UNL1        0.0238
     44 H          14.8606   16.1096   20.4094 H       1  UNL1        0.0238
     45 H          17.3178   15.4094   16.9584 H       1  UNL1        0.0238
     46 H          17.4263   14.4019   18.3945 H       1  UNL1        0.0238
     47 H          18.0189   16.0588   18.4520 H       1  UNL1        0.0238
     48 H          13.8240   15.2029   18.1828 H       1  UNL1        0.0238
     49 H          15.0086   13.8857   18.1473 H       1  UNL1        0.0238
     50 H          14.8737   14.9959   16.7781 H       1  UNL1        0.0238
@<TRIPOS>BOND
     1    39    20    1
     2    40    20    1
     3    20    41    1
     4    20    17    1
     5    36    19    1
     6    38    19    1
     7    31    14    1
     8    19    17    1
     9    19    37    1
    10    32    15    1
    11    17    18    1
    12    17     5    1
    13    35    18    1
    14    14    15   ar
    15    14    13   ar
    16    30    13    1
    17    15    16   ar
    18    50    24    1
    19    18    33    1
    20    18    34    1
    21     5     6   ar
    22     5     4   ar
    23    45    23    1
    24    26     6    1
    25    13    12   ar
    26    25     4    1
    27     6     7   ar
    28     4     3   ar
    29    24    49    1
    30    24    48    1
    31    24    21    1
    32    16     8    1
    33    16    11   ar
    34    23    46    1
    35    23    47    1
    36    23    21    1
    37     7    21    1
    38     7     2   ar
    39     3     2   ar
    40     3     8    1
    41    12    11   ar
    42    12    29    1
    43    21    22    1
    44     2     1    1
    45     8     9    1
    46    11    10    1
    47     9    10    2
    48     9    27    1
    49    10    28    1
    50    22    43    1
    51    22    44    1
    52    22    42    1
