@<TRIPOS>MOLECULE
1,8,9,10
 56 58 0 0 0
SMALL
GASTEIGER

@<TRIPOS>ATOM
      1 O           4.6190    4.1352    5.0687 O.3     1  UNL1       -0.2873
      2 C           3.7765    4.7054    4.2043 C.ar    1  UNL1        0.1867
      3 C           3.8696    6.1050    4.0531 C.ar    1  UNL1        0.0121
      4 C           3.0904    6.7714    3.1253 C.ar    1  UNL1       -0.0503
      5 C           2.1878    6.0678    2.3373 C.ar    1  UNL1       -0.0412
      6 C           2.0687    4.6947    2.5427 C.ar    1  UNL1       -0.0507
      7 C           2.8284    3.9834    3.4605 C.ar    1  UNL1        0.0052
      8 C           4.8175    6.7167    5.0111 C.3     1  UNL1        0.0455
      9 C           4.5157    6.8962    6.3903 C.3     1  UNL1        0.0004
     10 C           5.7313    7.0583    7.1141 C.3     1  UNL1        0.0102
     11 C           6.7961    7.0895    6.1522 C.ar    1  UNL1       -0.0360
     12 C           8.1682    7.3701    6.2703 C.ar    1  UNL1       -0.0577
     13 C           8.9304    7.4575    5.1315 C.ar    1  UNL1       -0.0615
     14 C           8.3683    7.2708    3.8572 C.ar    1  UNL1       -0.0615
     15 C           7.0372    6.9765    3.7019 C.ar    1  UNL1       -0.0574
     16 C           6.2263    6.8765    4.8444 C.ar    1  UNL1       -0.0313
     17 C           1.3139    6.7387    1.2870 C.3     1  UNL1       -0.0127
     18 C           1.5794    8.2427    1.1776 C.3     1  UNL1       -0.0560
     19 C           1.5964    6.1055   -0.0827 C.3     1  UNL1       -0.0560
     20 C          -0.1632    6.5406    1.6559 C.3     1  UNL1       -0.0560
     21 C           2.6457    2.4938    3.7238 C.3     1  UNL1       -0.0090
     22 C           1.5247    1.8800    2.8794 C.3     1  UNL1       -0.0559
     23 C           2.2923    2.3024    5.2077 C.3     1  UNL1       -0.0559
     24 C           3.9506    1.7479    3.4121 C.3     1  UNL1       -0.0559
     25 C           3.1205    7.0455    6.9207 C.3     1  UNL1       -0.0570
     26 C           5.8744    7.4832    8.5489 C.3     1  UNL1       -0.0541
     27 H           3.2022    7.8403    3.0424 H       1  UNL1        0.0625
     28 H           1.3441    4.1574    1.9552 H       1  UNL1        0.0625
     29 H           8.6082    7.5460    7.2439 H       1  UNL1        0.0621
     30 H           9.9822    7.6927    5.2077 H       1  UNL1        0.0618
     31 H           9.0015    7.3743    2.9884 H       1  UNL1        0.0618
     32 H           6.5977    6.8697    2.7191 H       1  UNL1        0.0621
     33 H           2.8455    8.1039    6.9266 H       1  UNL1        0.0236
     34 H           3.0379    6.6661    7.9359 H       1  UNL1        0.0236
     35 H           2.4115    6.5168    6.2812 H       1  UNL1        0.0236
     36 H           5.9218    8.5743    8.6142 H       1  UNL1        0.0239
     37 H           6.7914    7.0808    8.9831 H       1  UNL1        0.0239
     38 H           5.0341    7.1424    9.1512 H       1  UNL1        0.0239
     39 H           0.9441    8.6678    0.4030 H       1  UNL1        0.0238
     40 H           2.6146    8.4376    0.9084 H       1  UNL1        0.0238
     41 H           1.3525    8.7494    2.1125 H       1  UNL1        0.0238
     42 H           1.3645    5.0444   -0.0849 H       1  UNL1        0.0238
     43 H           2.6462    6.2254   -0.3410 H       1  UNL1        0.0238
     44 H           0.9941    6.5871   -0.8503 H       1  UNL1        0.0238
     45 H          -0.8017    7.0357    0.9272 H       1  UNL1        0.0238
     46 H          -0.3649    6.9653    2.6371 H       1  UNL1        0.0238
     47 H          -0.4280    5.4874    1.6799 H       1  UNL1        0.0238
     48 H           0.5701    2.3587    3.0859 H       1  UNL1        0.0238
     49 H           1.4299    0.8236    3.1223 H       1  UNL1        0.0238
     50 H           1.7438    1.9604    1.8172 H       1  UNL1        0.0238
     51 H           1.3835    2.8499    5.4531 H       1  UNL1        0.0238
     52 H           3.1025    2.6578    5.8466 H       1  UNL1        0.0238
     53 H           2.1288    1.2474    5.4186 H       1  UNL1        0.0238
     54 H           3.8225    0.6827    3.5950 H       1  UNL1        0.0238
     55 H           4.7614    2.1095    4.0428 H       1  UNL1        0.0238
     56 H           4.2231    1.8890    2.3680 H       1  UNL1        0.0238
@<TRIPOS>BOND
     1    44    19    1
     2    43    19    1
     3    42    19    1
     4    19    17    1
     5    39    18    1
     6    40    18    1
     7    45    20    1
     8    18    17    1
     9    18    41    1
    10    17    20    1
    11    17     5    1
    12    20    47    1
    13    20    46    1
    14    50    22    1
    15    28     6    1
    16     5     6   ar
    17     5     4   ar
    18    56    24    1
    19     6     7   ar
    20    32    15    1
    21    22    48    1
    22    22    49    1
    23    22    21    1
    24    31    14    1
    25    27     4    1
    26     4     3   ar
    27    24    54    1
    28    24    21    1
    29    24    55    1
    30     7    21    1
    31     7     2   ar
    32    15    14   ar
    33    15    16   ar
    34    21    23    1
    35    14    13   ar
    36     3     2   ar
    37     3     8    1
    38     2     1    1
    39    16     8    1
    40    16    11   ar
    41     8     9    1
    42    13    30    1
    43    13    12   ar
    44    23    53    1
    45    23    51    1
    46    23    52    1
    47    11    12   ar
    48    11    10    1
    49    12    29    1
    50    35    25    1
    51     9    25    1
    52     9    10    1
    53    25    33    1
    54    25    34    1
    55    10    26    1
    56    26    36    1
    57    26    37    1
    58    26    38    1
