@<TRIPOS>MOLECULE
1,8,9,10
 50 52 0 0 0
SMALL
GASTEIGER

@<TRIPOS>ATOM
      1 O           3.0009    9.0934   12.8598 O.3     1  UNL1       -0.2873
      2 C           2.0427    9.6542   12.1159 C.ar    1  UNL1        0.1867
      3 C           1.9750   11.0652   12.1257 C.ar    1  UNL1        0.0118
      4 C           1.0725   11.7313   11.3233 C.ar    1  UNL1       -0.0503
      5 C           0.1995   11.0205   10.5023 C.ar    1  UNL1       -0.0412
      6 C           0.2357    9.6325   10.5563 C.ar    1  UNL1       -0.0507
      7 C           1.1264    8.9179   11.3511 C.ar    1  UNL1        0.0052
      8 C           2.9077   11.6702   13.1039 C.3     1  UNL1        0.0422
      9 C           2.6508   11.7295   14.4932 C.3     1  UNL1       -0.0142
     10 C           3.8670   11.9247   15.1911 C.3     1  UNL1       -0.0042
     11 C           4.8994   12.0777   14.2183 C.ar    1  UNL1       -0.0393
     12 C           6.2614   12.4147   14.3194 C.ar    1  UNL1       -0.0580
     13 C           6.9900   12.5847   13.1692 C.ar    1  UNL1       -0.0615
     14 C           6.4073   12.4232   11.8995 C.ar    1  UNL1       -0.0615
     15 C           5.0857   12.0842   11.7584 C.ar    1  UNL1       -0.0574
     16 C           4.3049   11.9064   12.9143 C.ar    1  UNL1       -0.0318
     17 C          -0.7682   11.7862    9.6114 C.3     1  UNL1       -0.0127
     18 C          -1.6951   12.6356   10.4926 C.3     1  UNL1       -0.0560
     19 C          -1.6396   10.8683    8.7496 C.3     1  UNL1       -0.0560
     20 C           0.0340   12.6981    8.6722 C.3     1  UNL1       -0.0560
     21 C           1.1039    7.3987   11.4677 C.3     1  UNL1       -0.0090
     22 C           0.8499    7.0316   12.9392 C.3     1  UNL1       -0.0559
     23 C           2.4558    6.8217   11.0260 C.3     1  UNL1       -0.0559
     24 C           0.0040    6.7587   10.6150 C.3     1  UNL1       -0.0559
     25 H           1.0554   12.8104   11.3548 H       1  UNL1        0.0625
     26 H          -0.4611    9.0771    9.9559 H       1  UNL1        0.0625
     27 H           1.6604   11.7098   14.9321 H       1  UNL1        0.0322
     28 H           3.9657   12.1465   16.2483 H       1  UNL1        0.0358
     29 H           6.7127   12.5624   15.2929 H       1  UNL1        0.0620
     30 H           8.0324   12.8622   13.2311 H       1  UNL1        0.0618
     31 H           7.0187   12.5817   11.0234 H       1  UNL1        0.0618
     32 H           4.6293   11.9937   10.7811 H       1  UNL1        0.0621
     33 H          -1.1315   13.3524   11.0828 H       1  UNL1        0.0238
     34 H          -2.2536   11.9972   11.1738 H       1  UNL1        0.0238
     35 H          -2.4026   13.1840    9.8741 H       1  UNL1        0.0238
     36 H          -2.2908   11.4734    8.1219 H       1  UNL1        0.0238
     37 H          -2.2686   10.2310    9.3664 H       1  UNL1        0.0238
     38 H          -1.0286   10.2471    8.0992 H       1  UNL1        0.0238
     39 H           0.6261   13.4182    9.2293 H       1  UNL1        0.0238
     40 H          -0.6387   13.2458    8.0154 H       1  UNL1        0.0238
     41 H           0.7080   12.1040    8.0589 H       1  UNL1        0.0238
     42 H           1.6447    7.4185   13.5807 H       1  UNL1        0.0238
     43 H           0.8154    5.9496   13.0516 H       1  UNL1        0.0238
     44 H          -0.1011    7.4453   13.2708 H       1  UNL1        0.0238
     45 H           2.6783    7.1259   10.0049 H       1  UNL1        0.0238
     46 H           2.4265    5.7345   11.0649 H       1  UNL1        0.0238
     47 H           3.2526    7.1674   11.6824 H       1  UNL1        0.0238
     48 H          -0.9801    7.1159   10.9090 H       1  UNL1        0.0238
     49 H           0.0243    5.6798   10.7546 H       1  UNL1        0.0238
     50 H           0.1581    6.9624    9.5578 H       1  UNL1        0.0238
@<TRIPOS>BOND
     1    40    20    1
     2    41    20    1
     3    38    19    1
     4    36    19    1
     5    20    39    1
     6    20    17    1
     7    19    37    1
     8    19    17    1
     9    50    24    1
    10    17    18    1
    11    17     5    1
    12    35    18    1
    13    26     6    1
    14    45    23    1
    15    18    33    1
    16    18    34    1
    17     5     6   ar
    18     5     4   ar
    19     6     7   ar
    20    24    49    1
    21    24    48    1
    22    24    21    1
    23    32    15    1
    24    31    14    1
    25    23    46    1
    26    23    21    1
    27    23    47    1
    28     4    25    1
    29     4     3   ar
    30     7    21    1
    31     7     2   ar
    32    21    22    1
    33    15    14   ar
    34    15    16   ar
    35    14    13   ar
    36     2     3   ar
    37     2     1    1
    38     3     8    1
    39    16     8    1
    40    16    11   ar
    41    22    43    1
    42    22    44    1
    43    22    42    1
    44     8     9    1
    45    13    30    1
    46    13    12   ar
    47    11    12   ar
    48    11    10    1
    49    12    29    1
    50     9    27    1
    51     9    10    1
    52    10    28    1
