@<TRIPOS>MOLECULE
1,2,3,5
 17 16 0 0 0
SMALL
GASTEIGER

@<TRIPOS>ATOM
      1 O           5.9101    0.6191    5.1962 O.2     1  UNL1       -0.2933
      2 C           4.9091   -0.0722    5.6493 C.2     1  UNL1        0.1497
      3 C           4.5743   -1.2358    4.9658 C.2     1  UNL1       -0.0354
      4 H           3.6751   -1.7913    5.2256 H       1  UNL1        0.0612
      5 C           5.4924   -1.6849    3.9194 C.3     1  UNL1       -0.0047
      6 C           4.1772    0.4145    6.8689 C.3     1  UNL1       -0.0023
      7 H           4.2586    1.4985    6.9359 H       1  UNL1        0.0309
      8 H           4.6369   -0.0269    7.7546 H       1  UNL1        0.0309
      9 H           3.1287    0.1272    6.8308 H       1  UNL1        0.0309
     10 C           6.9226   -1.9491    4.3875 C.3     1  UNL1       -0.0555
     11 H           7.5891   -2.0871    3.5376 H       1  UNL1        0.0238
     12 H           6.9450   -2.8672    4.9801 H       1  UNL1        0.0238
     13 H           7.3035   -1.1382    5.0097 H       1  UNL1        0.0238
     14 C           4.9899   -2.8502    3.0896 C.3     1  UNL1       -0.0555
     15 H           5.5841   -2.9472    2.1810 H       1  UNL1        0.0238
     16 H           3.9485   -2.7120    2.8049 H       1  UNL1        0.0238
     17 H           5.0758   -3.7843    3.6489 H       1  UNL1        0.0238
@<TRIPOS>BOND
     1    15    14    1
     2    16    14    1
     3    14    17    1
     4    14     5    1
     5    11    10    1
     6     5    10    1
     7     5     3    1
     8    10    12    1
     9    10    13    1
    10     3     4    1
    11     3     2    2
    12     1     2    1
    13     2     6    1
    14     9     6    1
    15     6     7    1
    16     6     8    1
