@<TRIPOS>MOLECULE
10,34,36,40
 49 51 0 0 0
SMALL
GASTEIGER

@<TRIPOS>ATOM
      1 F           0.9662   14.8498    8.4021 F       1  UNL1        0.0000
      2 F           2.8463   15.8724    6.5011 F       1  UNL1        0.0000
      3 F           4.6979   11.8261    8.1032 F       1  UNL1        0.0000
      4 F           9.2014   14.0622   10.7327 F       1  UNL1        0.0000
      5 F           3.5748   19.1555   10.4160 F       1  UNL1        0.0000
      6 F           2.9649   14.9418    4.0220 F       1  UNL1        0.0000
      7 F           5.9095   15.5721    7.7343 F       1  UNL1        0.0000
      8 F           4.8473   16.8228   10.2288 F       1  UNL1        0.0000
      9 F           4.7247   12.7703   11.3476 F       1  UNL1        0.0000
     10 O           2.5964   12.0284    9.5341 O.3     1  UNL1        0.0000
     11 F           8.4820   15.4762    8.5046 F       1  UNL1        0.0000
     12 F          -0.3319   17.1950    8.6256 F       1  UNL1        0.0000
     13 F           3.9431   12.4393    3.5051 F       1  UNL1        0.0000
     14 F           4.8272   10.8965    5.5928 F       1  UNL1        0.0000
     15 F           0.9719   19.3964    9.6117 F       1  UNL1        0.0000
     16 F           7.2764   12.7115   12.1409 F       1  UNL1        0.0000
     17 C           1.6427   15.9170    8.8749 C.ar    1  UNL1        0.0000
     18 C           4.2284   12.6109    7.1119 C.ar    1  UNL1        0.0000
     19 C           3.5861   16.8804    9.7701 C.ar    1  UNL1        0.0000
     20 C           2.9773   15.7517    9.2390 C.ar    1  UNL1        0.0000
     21 C           3.3785   14.1642    5.0265 C.ar    1  UNL1        0.0000
     22 C           7.9258   14.1082   10.3445 C.ar    1  UNL1        0.0000
     23 C           3.3071   14.6253    6.3392 C.ar    1  UNL1        0.0000
     24 C           1.6110   18.2313    9.4921 C.ar    1  UNL1        0.0000
     25 C           6.2198   14.8669    8.8299 C.ar    1  UNL1        0.0000
     26 C           3.7027   13.8592    7.4310 C.ar    1  UNL1        0.0000
     27 C           3.8790   12.8973    4.7576 C.ar    1  UNL1        0.0000
     28 C           2.7832   13.2017    9.8626 C.3     1  UNL1        0.0000
     29 C           4.3216   12.1171    5.8177 C.ar    1  UNL1        0.0000
     30 C           6.9488   13.4263   11.0561 C.ar    1  UNL1        0.0000
     31 C           2.9336   18.1054    9.8944 C.ar    1  UNL1        0.0000
     32 C           0.9542   17.1150    8.9849 C.ar    1  UNL1        0.0000
     33 C           7.5545   14.8301    9.2148 C.ar    1  UNL1        0.0000
     34 C           1.7974   12.5092   11.9820 C.3     1  UNL1        0.0000
     35 C           5.2088   14.2136    9.5313 C.ar    1  UNL1        0.0000
     36 C           0.6631   11.8243   11.6684 C.3     1  UNL1        0.0000
     37 B           3.6649   14.2924    9.0068 B       1  UNL1        0.0000
     38 C           5.6252   13.4841   10.6343 C.ar    1  UNL1        0.0000
     39 C           2.1596   13.7029   11.1774 C.3     1  UNL1        0.0000
     40 C           0.4640   10.4365   11.9558 C.3     1  UNL1        0.0000
     41 C          -0.9564    9.9150   11.8642 C.3     1  UNL1        0.0000
     42 H           2.5600   12.0792   12.6276 H       1  UNL1        0.0000
     43 H          -0.1167   12.3490   11.1145 H       1  UNL1        0.0000
     44 H           2.8547   14.3832   11.6677 H       1  UNL1        0.0000
     45 H           1.2689   14.2741   10.8971 H       1  UNL1        0.0000
     46 H           0.9545   10.1251   12.8834 H       1  UNL1        0.0000
     47 H          -0.9951    8.8579   12.1167 H       1  UNL1        0.0000
     48 H          -1.3590   10.0468   10.8594 H       1  UNL1        0.0000
     49 H          -1.6083   10.4432   12.5675 H       1  UNL1        0.0000
@<TRIPOS>BOND
     1    13    27    1
     2     6    21    1
     3    27    21   ar
     4    27    29   ar
     5    21    23   ar
     6    14    29    1
     7    29    18   ar
     8    23     2    1
     9    23    26   ar
    10    18    26   ar
    11    18     3    1
    12    26    37    1
    13     7    25    1
    14     1    17    1
    15    11    33    1
    16    12    32    1
    17    25    33   ar
    18    25    35   ar
    19    17    32   ar
    20    17    20   ar
    21    32    24   ar
    22    37    20    1
    23    37    35    1
    24    37    28    1
    25    33    22   ar
    26    20    19   ar
    27    24    15    1
    28    24    31   ar
    29    35    38   ar
    30    10    28    1
    31    19    31   ar
    32    19     8    1
    33    28    39    1
    34    31     5    1
    35    22     4    1
    36    22    30   ar
    37    38    30   ar
    38    38     9    1
    39    48    41    1
    40    45    39    1
    41    30    16    1
    42    43    36    1
    43    39    44    1
    44    39    34    1
    45    36    40    1
    46    36    34    1
    47    41    40    1
    48    41    47    1
    49    41    49    1
    50    40    46    1
    51    34    42    1
