@<TRIPOS>MOLECULE
1
 13 13 0 0 0
SMALL
GASTEIGER

@<TRIPOS>ATOM
      1 O          -0.7259   13.1869   10.1812 O.3     1  UNL1       -0.3798
      2 C          -1.3101   11.8924    9.8907 C.3     1  UNL1        0.0477
      3 H          -1.9810   12.0004    9.0306 H       1  UNL1        0.0560
      4 H          -1.8950   11.5914   10.7704 H       1  UNL1        0.0560
      5 C          -0.1515   10.9289    9.6323 C.3     1  UNL1       -0.0274
      6 H          -0.3745    9.9265    9.9884 H       1  UNL1        0.0288
      7 H           0.0812   10.8780    8.5674 H       1  UNL1        0.0288
      8 C           0.9919   11.5955   10.3934 C.3     1  UNL1       -0.0274
      9 H           1.9768   11.2892   10.0499 H       1  UNL1        0.0288
     10 H           0.9025   11.4006   11.4629 H       1  UNL1        0.0288
     11 C           0.7052   13.0648   10.1146 C.3     1  UNL1        0.0477
     12 H           1.1428   13.7482   10.8495 H       1  UNL1        0.0560
     13 H           1.0405   13.3379    9.1013 H       1  UNL1        0.0560
@<TRIPOS>BOND
     1     7     5    1
     2     3     2    1
     3    13    11    1
     4     5     2    1
     5     5     6    1
     6     5     8    1
     7     2     1    1
     8     2     4    1
     9     9     8    1
    10    11     1    1
    11    11     8    1
    12    11    12    1
    13     8    10    1
