@<TRIPOS>MOLECULE
1
 13 13 0 0 0
SMALL
GASTEIGER

@<TRIPOS>ATOM
      1 O          -1.1892   15.8851   10.0026 O.3     1  UNL1       -0.3798
      2 C          -0.7871   17.2111   10.4150 C.3     1  UNL1        0.0477
      3 H          -1.4485   17.5275   11.2326 H       1  UNL1        0.0560
      4 H           0.2449   17.1480   10.7874 H       1  UNL1        0.0560
      5 C          -0.8822   18.0956    9.1746 C.3     1  UNL1       -0.0274
      6 H          -0.1612   18.9089    9.1992 H       1  UNL1        0.0288
      7 H          -1.8852   18.5103    9.0756 H       1  UNL1        0.0288
      8 C          -0.6155   17.0939    8.0538 C.3     1  UNL1       -0.0274
      9 H           0.4541   16.8963    7.9685 H       1  UNL1        0.0288
     10 H          -0.9959   17.4206    7.0895 H       1  UNL1        0.0288
     11 C          -1.3455   15.8593    8.5726 C.3     1  UNL1        0.0477
     12 H          -2.4160   15.8943    8.3256 H       1  UNL1        0.0560
     13 H          -0.9283   14.9189    8.1977 H       1  UNL1        0.0560
@<TRIPOS>BOND
     1    10     8    1
     2     9     8    1
     3     8    11    1
     4     8     5    1
     5    13    11    1
     6    12    11    1
     7    11     1    1
     8     7     5    1
     9     5     6    1
    10     5     2    1
    11     1     2    1
    12     2     4    1
    13     2     3    1
