@<TRIPOS>MOLECULE
1
 13 13 0 0 0
SMALL
GASTEIGER

@<TRIPOS>ATOM
      1 O           9.5125    4.4655    3.5155 O.3     1  UNL1       -0.3798
      2 C           9.4025    5.5927    2.6347 C.3     1  UNL1        0.0477
      3 C          10.2113    5.2338    1.3841 C.3     1  UNL1       -0.0274
      4 H           8.3418    5.7389    2.3845 H       1  UNL1        0.0560
      5 H           9.7856    6.4728    3.1502 H       1  UNL1        0.0560
      6 H           9.7606    5.6550    0.4884 H       1  UNL1        0.0288
      7 H          11.2294    5.6056    1.4772 H       1  UNL1        0.0288
      8 C          10.2113    3.6972    1.3841 C.3     1  UNL1       -0.0274
      9 C           9.4024    3.3382    2.6347 C.3     1  UNL1        0.0477
     10 H           8.3418    3.1921    2.3845 H       1  UNL1        0.0560
     11 H           9.7856    2.4582    3.1502 H       1  UNL1        0.0560
     12 H           9.7606    3.2760    0.4884 H       1  UNL1        0.0288
     13 H          11.2294    3.3254    1.4772 H       1  UNL1        0.0288
@<TRIPOS>BOND
     1     6     3    1
     2    12     8    1
     3     3     8    1
     4     3     7    1
     5     3     2    1
     6     8    13    1
     7     8     9    1
     8     4     2    1
     9    10     9    1
    10     9    11    1
    11     9     1    1
    12     2     5    1
    13     2     1    1
