@<TRIPOS>MOLECULE
6
 32 31 0 0 0
SMALL
GASTEIGER

@<TRIPOS>ATOM
      1 SI         12.4557    5.0329    2.8510 Si      1  UNL1        0.0000
      2 C          12.9764    7.8776    3.0907 C.3     1  UNL1        0.0000
      3 H          12.7435    8.8236    3.5788 H       1  UNL1        0.0000
      4 H          12.7487    7.9731    2.0324 H       1  UNL1        0.0000
      5 H          14.0439    7.6987    3.1951 H       1  UNL1        0.0000
      6 O          11.4305    3.9936    3.5001 O.3     1  UNL1        0.0000
      7 C          12.4942    6.6397    5.2123 C.3     1  UNL1        0.0000
      8 H          12.1572    7.5312    5.7408 H       1  UNL1        0.0000
      9 H          13.5650    6.5355    5.3727 H       1  UNL1        0.0000
     10 H          11.9953    5.7732    5.6391 H       1  UNL1        0.0000
     11 C          10.6482    5.7667    0.7739 C.3     1  UNL1        0.0000
     12 H          10.3702    5.7728   -0.2808 H       1  UNL1        0.0000
     13 H          10.6253    6.7899    1.1406 H       1  UNL1        0.0000
     14 H           9.9111    5.1870    1.3253 H       1  UNL1        0.0000
     15 C          14.2569    4.3960    3.1696 C.3     1  UNL1        0.0000
     16 H          14.5870    4.8152    4.1254 H       1  UNL1        0.0000
     17 C          12.1818    6.7384    3.7208 C.3     1  UNL1        0.0000
     18 H          11.1162    6.9741    3.6299 H       1  UNL1        0.0000
     19 C          12.0299    5.1452    0.9668 C.3     1  UNL1        0.0000
     20 H          12.7614    5.7664    0.4422 H       1  UNL1        0.0000
     21 C          12.0471    3.7517    0.3435 C.3     1  UNL1        0.0000
     22 H          11.7207    3.7870   -0.6963 H       1  UNL1        0.0000
     23 H          11.3802    3.0959    0.9002 H       1  UNL1        0.0000
     24 H          13.0446    3.3214    0.3690 H       1  UNL1        0.0000
     25 C          15.2580    4.8438    2.1079 C.3     1  UNL1        0.0000
     26 H          16.2631    4.5125    2.3677 H       1  UNL1        0.0000
     27 H          15.2681    5.9267    2.0165 H       1  UNL1        0.0000
     28 H          15.0050    4.4246    1.1379 H       1  UNL1        0.0000
     29 C          14.2730    2.8765    3.3193 C.3     1  UNL1        0.0000
     30 H          15.2573    2.5252    3.6295 H       1  UNL1        0.0000
     31 H          14.0186    2.3917    2.3801 H       1  UNL1        0.0000
     32 H          13.5361    2.5732    4.0603 H       1  UNL1        0.0000
@<TRIPOS>BOND
     1    22    21    1
     2    12    11    1
     3    21    24    1
     4    21    23    1
     5    21    19    1
     6    20    19    1
     7    11    19    1
     8    11    13    1
     9    11    14    1
    10    19     1    1
    11    28    25    1
    12    27    25    1
    13     4     2    1
    14    25    26    1
    15    25    15    1
    16    31    29    1
    17     1    15    1
    18     1     6    1
    19     1    17    1
    20     2     5    1
    21     2     3    1
    22     2    17    1
    23    15    29    1
    24    15    16    1
    25    29    30    1
    26    29    32    1
    27    18    17    1
    28    17     7    1
    29     7     9    1
    30     7    10    1
    31     7     8    1
