@<TRIPOS>MOLECULE
2
 35 37 0 0 0
SMALL
GASTEIGER

@<TRIPOS>ATOM
      1 SI          0.2617    0.6126    9.4066 Si      1  UNL1        0.0000
      2 O           0.1165    1.4475   10.7598 O.3     1  UNL1        0.0000
      3 C          -1.0173   -0.7991    9.2870 C.ar    1  UNL1        0.0000
      4 C          -0.0467    1.8526    7.9960 C.ar    1  UNL1        0.0000
      5 C           2.0096   -0.1321    9.4445 C.ar    1  UNL1        0.0000
      6 C          -0.4985    1.4756    6.7362 C.ar    1  UNL1        0.0000
      7 H          -0.6304    0.4263    6.5127 H       1  UNL1        0.0000
      8 C          -0.6945   -2.0919    9.6896 C.ar    1  UNL1        0.0000
      9 H           0.3045   -2.2979   10.0477 H       1  UNL1        0.0000
     10 C          -2.3102   -0.5651    8.8275 C.ar    1  UNL1        0.0000
     11 H          -2.5848    0.4279    8.5032 H       1  UNL1        0.0000
     12 C           2.7534   -0.0469   10.6181 C.ar    1  UNL1        0.0000
     13 H           2.3225    0.4763   11.4625 H       1  UNL1        0.0000
     14 C           2.5636   -0.7998    8.3586 C.ar    1  UNL1        0.0000
     15 H           1.9982   -0.8754    7.4407 H       1  UNL1        0.0000
     16 C           4.5480   -1.2788    9.6174 C.ar    1  UNL1        0.0000
     17 H           5.5297   -1.7263    9.6835 H       1  UNL1        0.0000
     18 C          -3.2490   -1.5798    8.7748 C.ar    1  UNL1        0.0000
     19 H          -4.2471   -1.3722    8.4152 H       1  UNL1        0.0000
     20 C          -2.9093   -2.8595    9.1782 C.ar    1  UNL1        0.0000
     21 H          -3.6396   -3.6553    9.1372 H       1  UNL1        0.0000
     22 C          -0.7938    2.4250    5.7728 C.ar    1  UNL1        0.0000
     23 H          -1.1498    2.1148    4.8002 H       1  UNL1        0.0000
     24 C          -1.6260   -3.1141    9.6336 C.ar    1  UNL1        0.0000
     25 H          -1.3502   -4.1134    9.9423 H       1  UNL1        0.0000
     26 C           3.8233   -1.3667    8.4404 C.ar    1  UNL1        0.0000
     27 H           4.2414   -1.8817    7.5868 H       1  UNL1        0.0000
     28 C           0.1150    3.2104    8.2581 C.ar    1  UNL1        0.0000
     29 H           0.4702    3.5065    9.2360 H       1  UNL1        0.0000
     30 C           4.0100   -0.6169   10.7090 C.ar    1  UNL1        0.0000
     31 H           4.5702   -0.5518   11.6318 H       1  UNL1        0.0000
     32 C          -0.6429    3.7724    6.0564 C.ar    1  UNL1        0.0000
     33 H          -0.8842    4.5141    5.3082 H       1  UNL1        0.0000
     34 C          -0.1824    4.1647    7.3027 C.ar    1  UNL1        0.0000
     35 H          -0.0616    5.2146    7.5307 H       1  UNL1        0.0000
@<TRIPOS>BOND
     1    23    22    1
     2    33    32    1
     3    22    32   ar
     4    22     6   ar
     5    32    34   ar
     6     7     6    1
     7     6     4   ar
     8    34    35    1
     9    34    28   ar
    10    15    14    1
    11    27    26    1
    12     4    28   ar
    13     4     1    1
    14    28    29    1
    15    14    26   ar
    16    14     5   ar
    17    19    18    1
    18    26    16   ar
    19    11    10    1
    20    18    10   ar
    21    18    20   ar
    22    10     3   ar
    23    21    20    1
    24    20    24   ar
    25     3     1    1
    26     3     8   ar
    27     1     5    1
    28     1     2    1
    29     5    12   ar
    30    16    17    1
    31    16    30   ar
    32    24     8   ar
    33    24    25    1
    34     8     9    1
    35    12    30   ar
    36    12    13    1
    37    30    31    1
