@<TRIPOS>MOLECULE
2
 44 43 0 0 0
SMALL
GASTEIGER

@<TRIPOS>ATOM
      1 SI          3.3388    9.8484    0.1086 Si      1  UNL1        0.0000
      2 O           4.7565    9.6595    0.7714 O.3     1  UNL1        0.0000
      3 O           2.1542    8.8122    0.5329 O.3     1  UNL1        0.0000
      4 O           3.5524    9.6064   -1.5211 O.3     1  UNL1        0.0000
      5 O           2.6835   11.3392    0.3712 O.3     1  UNL1        0.0000
      6 C           1.9121    8.1716    1.7633 C.3     1  UNL1        0.0000
      7 C           2.7338    8.9443   -2.4646 C.3     1  UNL1        0.0000
      8 C           0.5477    7.4824    1.6373 C.3     1  UNL1        0.0000
      9 H          -0.2235    8.2250    1.4505 H       1  UNL1        0.0000
     10 H           0.3112    6.9449    2.5517 H       1  UNL1        0.0000
     11 H           0.5584    6.7812    0.8060 H       1  UNL1        0.0000
     12 C           1.2944    9.4518   -2.3880 C.3     1  UNL1        0.0000
     13 H           0.9201    9.2875   -1.3835 H       1  UNL1        0.0000
     14 H           0.6676    8.9272   -3.1051 H       1  UNL1        0.0000
     15 H           1.2658   10.5169   -2.5994 H       1  UNL1        0.0000
     16 C           3.1836   12.6014    0.0039 C.3     1  UNL1        0.0000
     17 C           3.3222    9.2454   -3.8505 C.3     1  UNL1        0.0000
     18 H           3.3373   10.3185   -4.0259 H       1  UNL1        0.0000
     19 H           2.7204    8.7716   -4.6213 H       1  UNL1        0.0000
     20 H           4.3399    8.8682   -3.9168 H       1  UNL1        0.0000
     21 C           1.8856    9.1963    2.8934 C.3     1  UNL1        0.0000
     22 H           2.8542    9.6805    2.9441 H       1  UNL1        0.0000
     23 H           1.6618    8.7191    3.8441 H       1  UNL1        0.0000
     24 H           1.1377    9.9548    2.6799 H       1  UNL1        0.0000
     25 C           3.0135    7.1372    2.0124 C.3     1  UNL1        0.0000
     26 H           2.9852    6.3697    1.2419 H       1  UNL1        0.0000
     27 H           2.8887    6.6707    2.9859 H       1  UNL1        0.0000
     28 H           3.9725    7.6437    1.9620 H       1  UNL1        0.0000
     29 C           2.7692    7.4364   -2.2011 C.3     1  UNL1        0.0000
     30 H           3.7933    7.0736   -2.2517 H       1  UNL1        0.0000
     31 H           2.1640    6.9053   -2.9312 H       1  UNL1        0.0000
     32 H           2.3846    7.2538   -1.2038 H       1  UNL1        0.0000
     33 C           3.0546   12.7884   -1.5134 C.3     1  UNL1        0.0000
     34 H           3.5988   11.9974   -2.0196 H       1  UNL1        0.0000
     35 H           3.4455   13.7564   -1.8180 H       1  UNL1        0.0000
     36 H           2.0082   12.7257   -1.8009 H       1  UNL1        0.0000
     37 C           2.3229   13.6436    0.7317 C.3     1  UNL1        0.0000
     38 H           1.2809   13.5194    0.4497 H       1  UNL1        0.0000
     39 H           2.6447   14.6501    0.4770 H       1  UNL1        0.0000
     40 H           2.4084   13.5004    1.8047 H       1  UNL1        0.0000
     41 C           4.6490   12.7791    0.4241 C.3     1  UNL1        0.0000
     42 H           4.7209   12.7836    1.5087 H       1  UNL1        0.0000
     43 H           5.0265   13.7243    0.0404 H       1  UNL1        0.0000
     44 H           5.2538   11.9518    0.0249 H       1  UNL1        0.0000
@<TRIPOS>BOND
     1    19    17    1
     2    18    17    1
     3    20    17    1
     4    17     7    1
     5    14    12    1
     6    31    29    1
     7    15    12    1
     8     7    12    1
     9     7    29    1
    10     7     4    1
    11    12    13    1
    12    30    29    1
    13    29    32    1
    14    34    33    1
    15    35    33    1
    16    36    33    1
    17     4     1    1
    18    33    16    1
    19    16     5    1
    20    16    41    1
    21    16    37    1
    22    44    41    1
    23    43    41    1
    24     1     5    1
    25     1     3    1
    26     1     2    1
    27    41    42    1
    28    38    37    1
    29    39    37    1
    30     3     6    1
    31    37    40    1
    32    11     8    1
    33    26    25    1
    34     9     8    1
    35     8     6    1
    36     8    10    1
    37     6    25    1
    38     6    21    1
    39    28    25    1
    40    25    27    1
    41    24    21    1
    42    21    22    1
    43    21    23    1
