@<TRIPOS>MOLECULE
2
 44 43 0 0 0
SMALL
GASTEIGER

@<TRIPOS>ATOM
      1 SI          6.6726   11.6043    4.3203 Si      1  UNL1        0.0000
      2 O           6.2113   11.7058    2.8194 O.3     1  UNL1        0.0000
      3 O           5.5008   11.8733    5.4330 O.3     1  UNL1        0.0000
      4 O           7.3547   10.1627    4.7466 O.3     1  UNL1        0.0000
      5 O           7.9025   12.6959    4.4520 O.3     1  UNL1        0.0000
      6 C           6.9156    8.8841    4.3437 C.3     1  UNL1        0.0000
      7 C           7.5641    7.8756    5.3017 C.3     1  UNL1        0.0000
      8 H           8.6454    7.9909    5.2863 H       1  UNL1        0.0000
      9 H           7.3094    6.8588    5.0152 H       1  UNL1        0.0000
     10 H           7.2146    8.0593    6.3139 H       1  UNL1        0.0000
     11 C           3.9140   12.9726    6.7957 C.3     1  UNL1        0.0000
     12 H           3.6608   12.0153    7.2434 H       1  UNL1        0.0000
     13 H           3.0362   13.6134    6.8050 H       1  UNL1        0.0000
     14 H           4.6980   13.4326    7.3918 H       1  UNL1        0.0000
     15 C           5.3949    8.7801    4.4078 C.3     1  UNL1        0.0000
     16 H           5.0471    9.1725    5.3585 H       1  UNL1        0.0000
     17 H           5.0738    7.7480    4.2993 H       1  UNL1        0.0000
     18 H           4.9692    9.3798    3.6073 H       1  UNL1        0.0000
     19 C           4.4033   12.7586    5.3585 C.3     1  UNL1        0.0000
     20 C           3.3006   12.1155    4.5133 C.3     1  UNL1        0.0000
     21 H           3.7017   11.8777    3.5316 H       1  UNL1        0.0000
     22 H           2.4535   12.7888    4.4093 H       1  UNL1        0.0000
     23 H           2.9646   11.1944    4.9814 H       1  UNL1        0.0000
     24 C           8.0293   13.0310    6.8532 C.3     1  UNL1        0.0000
     25 H           7.2669   13.8035    6.8071 H       1  UNL1        0.0000
     26 H           8.7153   13.2553    7.6665 H       1  UNL1        0.0000
     27 H           7.5398   12.0803    7.0367 H       1  UNL1        0.0000
     28 C           4.8150   14.0936    4.7362 C.3     1  UNL1        0.0000
     29 H           5.6260   14.5358    5.3081 H       1  UNL1        0.0000
     30 H           3.9732   14.7812    4.7162 H       1  UNL1        0.0000
     31 H           5.1712   13.9193    3.7258 H       1  UNL1        0.0000
     32 C           8.7806   12.9620    5.5244 C.3     1  UNL1        0.0000
     33 C           9.8452   11.8617    5.6007 C.3     1  UNL1        0.0000
     34 H           9.3428   10.9023    5.6697 H       1  UNL1        0.0000
     35 H          10.4803   12.0069    6.4706 H       1  UNL1        0.0000
     36 H          10.4634   11.8703    4.7060 H       1  UNL1        0.0000
     37 C           7.3807    8.6165    2.9049 C.3     1  UNL1        0.0000
     38 H           6.9852    9.4114    2.2546 H       1  UNL1        0.0000
     39 H           6.9993    7.6575    2.5647 H       1  UNL1        0.0000
     40 H           8.4674    8.6120    2.8643 H       1  UNL1        0.0000
     41 C           9.4379   14.3147    5.2211 C.3     1  UNL1        0.0000
     42 H           9.9616   14.2674    4.2695 H       1  UNL1        0.0000
     43 H          10.1447   14.5760    6.0041 H       1  UNL1        0.0000
     44 H           8.6771   15.0881    5.1544 H       1  UNL1        0.0000
@<TRIPOS>BOND
     1    38    37    1
     2    39    37    1
     3     2     1    1
     4    40    37    1
     5    37     6    1
     6    21    20    1
     7    18    15    1
     8    31    28    1
     9    42    41    1
    10    17    15    1
    11     1     5    1
    12     1     4    1
    13     1     3    1
    14     6    15    1
    15     6     4    1
    16     6     7    1
    17    15    16    1
    18    22    20    1
    19     5    32    1
    20    20    23    1
    21    20    19    1
    22    36    33    1
    23    30    28    1
    24    28    29    1
    25    28    19    1
    26     9     7    1
    27    44    41    1
    28    41    32    1
    29    41    43    1
    30     8     7    1
    31     7    10    1
    32    19     3    1
    33    19    11    1
    34    32    33    1
    35    32    24    1
    36    33    34    1
    37    33    35    1
    38    11    13    1
    39    11    12    1
    40    11    14    1
    41    25    24    1
    42    24    27    1
    43    24    26    1
