@<TRIPOS>MOLECULE
4
 64 65 0 0 0
SMALL
GASTEIGER

@<TRIPOS>ATOM
      1 SI          6.2442    4.9120    1.7928 Si      1  UNL1        0.0000
      2 SI         10.2640    8.2180    3.1069 Si      1  UNL1        0.0000
      3 P           8.4961    5.9904    2.3057 P.3     1  UNL1        0.0000
      4 O           9.9006    5.5214    2.2979 O.3     1  UNL1        0.0000
      5 N           7.5288    5.7721    0.9471 N.3     1  UNL1        0.0000
      6 N           7.3187    5.1585    3.1623 N.3     1  UNL1        0.0000
      7 N           8.6286    7.5663    2.8098 N.pl3   1  UNL1        0.0000
      8 C           7.8640    5.8769   -0.4611 C.3     1  UNL1        0.0000
      9 C           8.9229    6.9618   -0.6401 C.3     1  UNL1        0.0000
     10 H           8.5750    7.9112   -0.2381 H       1  UNL1        0.0000
     11 H           9.1604    7.0913   -1.6941 H       1  UNL1        0.0000
     12 H           9.8263    6.6653   -0.1119 H       1  UNL1        0.0000
     13 C           8.4231    4.5444   -0.9776 C.3     1  UNL1        0.0000
     14 H           9.3162    4.2741   -0.4053 H       1  UNL1        0.0000
     15 H           8.6958    4.6306   -2.0273 H       1  UNL1        0.0000
     16 H           7.6845    3.7548   -0.8633 H       1  UNL1        0.0000
     17 C           6.5943    6.2325   -1.2414 C.3     1  UNL1        0.0000
     18 H           6.1766    7.1710   -0.8860 H       1  UNL1        0.0000
     19 H           5.8469    5.4536   -1.1126 H       1  UNL1        0.0000
     20 H           6.8218    6.3305   -2.3000 H       1  UNL1        0.0000
     21 C           7.2447    4.7664    4.5573 C.3     1  UNL1        0.0000
     22 C           6.8961    3.2787    4.6569 C.3     1  UNL1        0.0000
     23 H           7.6294    2.6845    4.1197 H       1  UNL1        0.0000
     24 H           5.9153    3.0942    4.2260 H       1  UNL1        0.0000
     25 H           6.8883    2.9671    5.6985 H       1  UNL1        0.0000
     26 C           8.6023    5.0262    5.2004 C.3     1  UNL1        0.0000
     27 H           9.3733    4.4421    4.6966 H       1  UNL1        0.0000
     28 H           8.5893    4.7535    6.2535 H       1  UNL1        0.0000
     29 H           8.8483    6.0803    5.1047 H       1  UNL1        0.0000
     30 C           6.1534    5.5801    5.2648 C.3     1  UNL1        0.0000
     31 H           6.3502    6.6445    5.1670 H       1  UNL1        0.0000
     32 H           6.1175    5.3212    6.3202 H       1  UNL1        0.0000
     33 H           5.1854    5.3683    4.8174 H       1  UNL1        0.0000
     34 C           4.6161    5.8886    1.9277 C.3     1  UNL1        0.0000
     35 H           3.8652    5.2756    2.4141 H       1  UNL1        0.0000
     36 H           4.2333    6.1422    0.9456 H       1  UNL1        0.0000
     37 H           4.7199    6.8073    2.4941 H       1  UNL1        0.0000
     38 C           5.8353    3.1402    1.2271 C.3     1  UNL1        0.0000
     39 H           5.0740    2.7138    1.8719 H       1  UNL1        0.0000
     40 H           6.6953    2.4787    1.2421 H       1  UNL1        0.0000
     41 H           5.4283    3.1506    0.2206 H       1  UNL1        0.0000
     42 C           7.4723    8.3138    3.0846 C.ar    1  UNL1        0.0000
     43 C           6.5650    8.6216    2.0799 C.ar    1  UNL1        0.0000
     44 H           6.7487    8.2601    1.0818 H       1  UNL1        0.0000
     45 C           5.4443    9.3863    2.3549 C.ar    1  UNL1        0.0000
     46 H           4.7498    9.6202    1.5609 H       1  UNL1        0.0000
     47 C           5.2158    9.8566    3.6361 C.ar    1  UNL1        0.0000
     48 H           4.3436   10.4562    3.8487 H       1  UNL1        0.0000
     49 C           6.1175    9.5553    4.6434 C.ar    1  UNL1        0.0000
     50 H           5.9478    9.9168    5.6471 H       1  UNL1        0.0000
     51 C           7.2353    8.7883    4.3720 C.ar    1  UNL1        0.0000
     52 H           7.9402    8.5521    5.1553 H       1  UNL1        0.0000
     53 C           9.9654   10.0609    3.5026 C.3     1  UNL1        0.0000
     54 H           9.2553   10.5206    2.8238 H       1  UNL1        0.0000
     55 H          10.9044   10.5928    3.4077 H       1  UNL1        0.0000
     56 H           9.6058   10.2242    4.5108 H       1  UNL1        0.0000
     57 C          11.1768    7.3860    4.5581 C.3     1  UNL1        0.0000
     58 H          11.3439    6.3299    4.3598 H       1  UNL1        0.0000
     59 H          10.6587    7.4737    5.5099 H       1  UNL1        0.0000
     60 H          12.1515    7.8504    4.6801 H       1  UNL1        0.0000
     61 C          11.3723    8.2000    1.5604 C.3     1  UNL1        0.0000
     62 H          10.9214    8.6937    0.7042 H       1  UNL1        0.0000
     63 H          11.6343    7.1865    1.2724 H       1  UNL1        0.0000
     64 H          12.3001    8.7189    1.7842 H       1  UNL1        0.0000
@<TRIPOS>BOND
     1    20    17    1
     2    15    13    1
     3    11     9    1
     4    17    19    1
     5    17    18    1
     6    17     8    1
     7    13    16    1
     8    13     8    1
     9    13    14    1
    10     9     8    1
    11     9    10    1
    12     9    12    1
    13     8     5    1
    14    41    38    1
    15    62    61    1
    16    36    34    1
    17     5     1    1
    18     5     3    1
    19    44    43    1
    20    38    40    1
    21    38     1    1
    22    38    39    1
    23    63    61    1
    24    61    64    1
    25    61     2    1
    26    46    45    1
    27     1    34    1
    28     1     6    1
    29    34    35    1
    30    34    37    1
    31    43    45   ar
    32    43    42   ar
    33     4     3    1
    34     3     7    1
    35     3     6    1
    36    45    47   ar
    37     7    42    1
    38     7     2    1
    39    54    53    1
    40    42    51   ar
    41     2    53    1
    42     2    57    1
    43     6    21    1
    44    55    53    1
    45    53    56    1
    46    47    48    1
    47    47    49   ar
    48    23    22    1
    49    24    22    1
    50    58    57    1
    51    51    49   ar
    52    51    52    1
    53    21    22    1
    54    21    26    1
    55    21    30    1
    56    57    60    1
    57    57    59    1
    58    49    50    1
    59    22    25    1
    60    27    26    1
    61    33    30    1
    62    29    26    1
    63    31    30    1
    64    26    28    1
    65    30    32    1
