@<TRIPOS>MOLECULE
1
 13 13 0 0 0
SMALL
GASTEIGER

@<TRIPOS>ATOM
      1 O          11.7315    2.0963    0.9527 O.3     1  UNL1       -0.3798
      2 C          12.1010    1.0368    1.8317 C.3     1  UNL1        0.0477
      3 H          11.2805    0.8534    2.5396 H       1  UNL1        0.0560
      4 H          12.9812    1.3708    2.3881 H       1  UNL1        0.0560
      5 C          12.3704   -0.1961    0.9510 C.3     1  UNL1       -0.0274
      6 H          13.3604   -0.6105    1.1271 H       1  UNL1        0.0288
      7 H          11.6321   -0.9723    1.1495 H       1  UNL1        0.0288
      8 C          12.2157    0.3400   -0.4752 C.3     1  UNL1       -0.0274
      9 H          11.8118   -0.3974   -1.1644 H       1  UNL1        0.0288
     10 H          13.1730    0.6976   -0.8557 H       1  UNL1        0.0288
     11 C          11.2769    1.5223   -0.2589 C.3     1  UNL1        0.0477
     12 H          11.3415    2.2911   -1.0343 H       1  UNL1        0.0560
     13 H          10.2336    1.1862   -0.1446 H       1  UNL1        0.0560
@<TRIPOS>BOND
     1     9     8    1
     2    12    11    1
     3    10     8    1
     4     8    11    1
     5     8     5    1
     6    11    13    1
     7    11     1    1
     8     5     6    1
     9     5     7    1
    10     5     2    1
    11     1     2    1
    12     2     4    1
    13     2     3    1
