@<TRIPOS>MOLECULE
4
 14 13 0 0 0
SMALL
GASTEIGER

@<TRIPOS>ATOM
      1 F          -7.4857   11.0677    8.8905 F       1  UNL1       -0.1675
      2 F          -5.7575    9.9749    8.2750 F       1  UNL1       -0.1675
      3 F          -7.2095   10.5834    6.8053 F       1  UNL1       -0.1675
      4 O          -5.8201   12.5200    6.2954 O.3     1  UNL1       -0.2188
      5 C          -5.8000   12.3375    7.6583 C.3     1  UNL1        0.1928
      6 C          -4.3570   12.2347    8.1773 C.3     1  UNL1       -0.0245
      7 H          -3.8749   13.2001    8.0432 H       1  UNL1        0.0261
      8 H          -3.8102   11.4924    7.5994 H       1  UNL1        0.0261
      9 H          -4.3412   11.9637    9.2297 H       1  UNL1        0.0261
     10 C          -6.5383   13.4848    8.3720 C.3     1  UNL1       -0.0245
     11 H          -6.0940   14.4243    8.0502 H       1  UNL1        0.0261
     12 H          -6.4416   13.3899    9.4501 H       1  UNL1        0.0261
     13 H          -7.5956   13.4908    8.1161 H       1  UNL1        0.0261
     14 C          -6.5542   10.9912    7.9344 C.3     1  UNL1        0.4209
@<TRIPOS>BOND
     1     4     5    1
     2     3    14    1
     3     8     6    1
     4     5    14    1
     5     5     6    1
     6     5    10    1
     7    14     2    1
     8    14     1    1
     9     7     6    1
    10    11    10    1
    11    13    10    1
    12     6     9    1
    13    10    12    1
