@<TRIPOS>MOLECULE
4
 14 13 0 0 0
SMALL
GASTEIGER

@<TRIPOS>ATOM
      1 F          -8.5313   12.7089    5.9666 F       1  UNL1       -0.1675
      2 F          -9.4331   14.5639    5.3133 F       1  UNL1       -0.1675
      3 F          -7.3387   14.1816    4.9651 F       1  UNL1       -0.1675
      4 O          -8.0192   11.7752    3.6567 O.3     1  UNL1       -0.2188
      5 C          -8.8433   12.8753    3.6176 C.3     1  UNL1        0.1928
      6 C         -10.3207   12.4468    3.5895 C.3     1  UNL1       -0.0245
      7 H         -10.5378   11.8108    4.4459 H       1  UNL1        0.0261
      8 H         -10.4889   11.8708    2.6843 H       1  UNL1        0.0261
      9 H         -10.9767   13.3132    3.6001 H       1  UNL1        0.0261
     10 C          -8.5080   13.8367    2.4636 C.3     1  UNL1       -0.0245
     11 H          -7.4248   13.9735    2.4208 H       1  UNL1        0.0261
     12 H          -9.0046   14.7942    2.6046 H       1  UNL1        0.0261
     13 H          -8.8361   13.3934    1.5284 H       1  UNL1        0.0261
     14 C          -8.5741   13.6111    4.9500 C.3     1  UNL1        0.4209
@<TRIPOS>BOND
     1    13    10    1
     2    11    10    1
     3    10    12    1
     4    10     5    1
     5     8     6    1
     6     6     9    1
     7     6     5    1
     8     6     7    1
     9     5     4    1
    10     5    14    1
    11    14     3    1
    12    14     2    1
    13    14     1    1
