@<TRIPOS>MOLECULE
1
 13 13 0 0 0
SMALL
GASTEIGER

@<TRIPOS>ATOM
      1 O           2.4609    1.7954   20.7114 O.3     1  UNL1       -0.3798
      2 C           2.5143    2.7618   19.6700 C.3     1  UNL1        0.0477
      3 H           2.3365    3.7622   20.0906 H       1  UNL1        0.0560
      4 H           1.7411    2.5246   18.9418 H       1  UNL1        0.0560
      5 C           3.9351    2.6598   19.1040 C.3     1  UNL1       -0.0274
      6 H           4.2787    3.6121   18.7075 H       1  UNL1        0.0288
      7 H           3.9593    1.9207   18.3050 H       1  UNL1        0.0288
      8 C           4.7616    2.1885   20.3128 C.3     1  UNL1       -0.0274
      9 H           5.3049    1.2741   20.0815 H       1  UNL1        0.0288
     10 H           5.4793    2.9394   20.6367 H       1  UNL1        0.0288
     11 C           3.7000    1.9385   21.3984 C.3     1  UNL1        0.0477
     12 H           3.8710    1.0322   21.9809 H       1  UNL1        0.0560
     13 H           3.6398    2.7987   22.0793 H       1  UNL1        0.0560
@<TRIPOS>BOND
     1     7     5    1
     2     6     5    1
     3     4     2    1
     4     5     2    1
     5     5     8    1
     6     2     3    1
     7     2     1    1
     8     9     8    1
     9     8    10    1
    10     8    11    1
    11     1    11    1
    12    11    12    1
    13    11    13    1
