@<TRIPOS>MOLECULE
2
 40 41 0 0 0
SMALL
GASTEIGER

@<TRIPOS>ATOM
      1 SI         23.0178    8.2628   16.8859 Si      1  UNL1        0.0000
      2 O          21.0575    6.1044   15.3293 O.3     1  UNL1        0.0000
      3 C          21.2699    5.9235   16.6915 C.3     1  UNL1        0.0000
      4 C          20.3005    6.7087   17.5713 C.ar    1  UNL1        0.0000
      5 C          20.3852    6.6130   18.9588 C.ar    1  UNL1        0.0000
      6 H          21.1237    5.9647   19.4064 H       1  UNL1        0.0000
      7 C          19.5226    7.3246   19.7708 C.ar    1  UNL1        0.0000
      8 H          19.6022    7.2376   20.8447 H       1  UNL1        0.0000
      9 C          18.5552    8.1459   19.2132 C.ar    1  UNL1        0.0000
     10 H          17.8805    8.7004   19.8487 H       1  UNL1        0.0000
     11 C          18.4555    8.2433   17.8368 C.ar    1  UNL1        0.0000
     12 H          17.6995    8.8714   17.3876 H       1  UNL1        0.0000
     13 C          19.3227    7.5291   17.0262 C.ar    1  UNL1        0.0000
     14 H          19.2247    7.6013   15.9346 H       1  UNL1        0.0000
     15 C          21.1141    4.4175   16.9566 C.ar    1  UNL1        0.0000
     16 C          22.0669    3.5304   16.4631 C.ar    1  UNL1        0.0000
     17 H          22.9383    3.9079   15.9514 H       1  UNL1        0.0000
     18 C          21.9109    2.1631   16.6014 C.ar    1  UNL1        0.0000
     19 H          22.6699    1.4966   16.2171 H       1  UNL1        0.0000
     20 C          20.7887    1.6479   17.2271 C.ar    1  UNL1        0.0000
     21 H          20.6662    0.5804   17.3382 H       1  UNL1        0.0000
     22 C          19.8240    2.5168   17.7044 C.ar    1  UNL1        0.0000
     23 H          18.9380    2.1301   18.1873 H       1  UNL1        0.0000
     24 C          19.9833    3.8857   17.5683 C.ar    1  UNL1        0.0000
     25 H          19.2141    4.5416   17.9459 H       1  UNL1        0.0000
     26 C          22.7065    6.3840   17.0475 C.3     1  UNL1        0.0000
     27 H          23.3811    5.8816   16.3546 H       1  UNL1        0.0000
     28 H          22.9592    6.0351   18.0489 H       1  UNL1        0.0000
     29 C          22.5298    9.1985   18.4820 C.3     1  UNL1        0.0000
     30 H          22.9071   10.2162   18.4555 H       1  UNL1        0.0000
     31 H          22.9467    8.7217   19.3636 H       1  UNL1        0.0000
     32 H          21.4538    9.2487   18.6162 H       1  UNL1        0.0000
     33 C          24.9034    8.4630   16.6207 C.3     1  UNL1        0.0000
     34 H          25.2284    8.0202   15.6838 H       1  UNL1        0.0000
     35 H          25.4684    7.9916   17.4188 H       1  UNL1        0.0000
     36 H          25.1833    9.5112   16.6013 H       1  UNL1        0.0000
     37 C          22.1437    9.0997   15.4140 C.3     1  UNL1        0.0000
     38 H          22.6867    9.9827   15.0856 H       1  UNL1        0.0000
     39 H          21.1368    9.4141   15.6874 H       1  UNL1        0.0000
     40 H          22.0773    8.4130   14.5596 H       1  UNL1        0.0000
@<TRIPOS>BOND
     1    40    37    1
     2    38    37    1
     3     2     3    1
     4    37    39    1
     5    37     1    1
     6    34    33    1
     7    14    13    1
     8    17    16    1
     9    19    18    1
    10    27    26    1
    11    16    18   ar
    12    16    15   ar
    13    36    33    1
    14    18    20   ar
    15    33     1    1
    16    33    35    1
    17     3    15    1
    18     3    26    1
    19     3     4    1
    20     1    26    1
    21     1    29    1
    22    15    24   ar
    23    13     4   ar
    24    13    11   ar
    25    26    28    1
    26    20    21    1
    27    20    22   ar
    28    12    11    1
    29    24    22   ar
    30    24    25    1
    31     4     5   ar
    32    22    23    1
    33    11     9   ar
    34    30    29    1
    35    29    32    1
    36    29    31    1
    37     5     6    1
    38     5     7   ar
    39     9     7   ar
    40     9    10    1
    41     7     8    1
