@<TRIPOS>MOLECULE
1
 13 13 0 0 0
SMALL
GASTEIGER

@<TRIPOS>ATOM
      1 O          13.1617   -0.6632    2.9356 O.3     1  UNL1       -0.3798
      2 C          12.7777   -1.4379    4.0745 C.3     1  UNL1        0.0477
      3 H          12.4398   -2.4277    3.7399 H       1  UNL1        0.0560
      4 H          11.9397   -0.9241    4.5505 H       1  UNL1        0.0560
      5 C          14.0091   -1.5552    4.9915 C.3     1  UNL1       -0.0274
      6 H          14.3099   -2.5975    5.0927 H       1  UNL1        0.0288
      7 H          13.8104   -1.1602    5.9853 H       1  UNL1        0.0288
      8 C          15.0846   -0.7460    4.2597 C.3     1  UNL1       -0.0274
      9 H          16.0779   -1.1760    4.3589 H       1  UNL1        0.0288
     10 H          15.1039    0.2818    4.6206 H       1  UNL1        0.0288
     11 C          14.5793   -0.7714    2.8213 C.3     1  UNL1        0.0477
     12 H          14.9317    0.0696    2.2199 H       1  UNL1        0.0560
     13 H          14.8404   -1.7192    2.3286 H       1  UNL1        0.0560
@<TRIPOS>BOND
     1    12    11    1
     2    13    11    1
     3    11     1    1
     4    11     8    1
     5     1     2    1
     6     3     2    1
     7     2     4    1
     8     2     5    1
     9     8     9    1
    10     8    10    1
    11     8     5    1
    12     5     6    1
    13     5     7    1
