@<TRIPOS>MOLECULE
1
 13 13 0 0 0
SMALL
GASTEIGER

@<TRIPOS>ATOM
      1 O          10.0097   -0.9656    2.5391 O.3     1  UNL1       -0.3798
      2 C           9.3991   -1.8889    1.6481 C.3     1  UNL1        0.0477
      3 H           9.2891   -2.8590    2.1550 H       1  UNL1        0.0560
      4 H          10.0448   -2.0098    0.7774 H       1  UNL1        0.0560
      5 C           8.0210   -1.2939    1.3227 C.3     1  UNL1       -0.0274
      6 H           8.0698   -0.7022    0.4093 H       1  UNL1        0.0288
      7 H           7.2746   -2.0744    1.1903 H       1  UNL1        0.0288
      8 C           7.7288   -0.3972    2.5404 C.3     1  UNL1       -0.0274
      9 H           6.8136   -0.6798    3.0559 H       1  UNL1        0.0288
     10 H           7.6533    0.6478    2.2441 H       1  UNL1        0.0288
     11 C           8.9609   -0.5973    3.4323 C.3     1  UNL1        0.0477
     12 H           9.2617    0.3056    3.9665 H       1  UNL1        0.0560
     13 H           8.7948   -1.4180    4.1453 H       1  UNL1        0.0560
@<TRIPOS>BOND
     1     6     5    1
     2     4     2    1
     3     7     5    1
     4     5     2    1
     5     5     8    1
     6     2     3    1
     7     2     1    1
     8    10     8    1
     9     1    11    1
    10     8     9    1
    11     8    11    1
    12    11    12    1
    13    11    13    1
