@<TRIPOS>MOLECULE
1
 26 28 0 0 0
SMALL
GASTEIGER

@<TRIPOS>ATOM
      1 O           9.3351    8.9398    6.9352 O.3     1  UNL1       -0.2276
      2 C           8.4135    9.1499    5.9181 C.3     1  UNL1        0.1053
      3 C           8.2925    7.8968    5.0345 C.3     1  UNL1       -0.0179
      4 H           7.9552    7.0559    5.6452 H       1  UNL1        0.0297
      5 H           9.2776    7.6474    4.6320 H       1  UNL1        0.0297
      6 C           8.8964   10.3231    5.0511 C.3     1  UNL1       -0.0179
      7 H           8.9969   11.1991    5.7005 H       1  UNL1        0.0297
      8 H           9.8885   10.0795    4.6568 H       1  UNL1        0.0297
      9 C           7.0329    9.4872    6.4990 C.3     1  UNL1       -0.0179
     10 H           7.1432   10.3602    7.1466 H       1  UNL1        0.0297
     11 H           6.6897    8.6493    7.1109 H       1  UNL1        0.0297
     12 C           7.2998    8.1602    3.9034 C.3     1  UNL1       -0.0378
     13 H           7.2169    7.2619    3.2805 H       1  UNL1        0.0302
     14 C           7.7894    9.3288    3.0488 C.3     1  UNL1       -0.0472
     15 H           8.7609    9.0890    2.6117 H       1  UNL1        0.0271
     16 H           7.0883    9.5076    2.2305 H       1  UNL1        0.0271
     17 C           7.9056   10.5801    3.9193 C.3     1  UNL1       -0.0378
     18 H           8.2597   11.4182    3.3093 H       1  UNL1        0.0302
     19 C           6.5397   10.9222    4.5134 C.3     1  UNL1       -0.0472
     20 H           5.8258   11.1257    3.7121 H       1  UNL1        0.0271
     21 H           6.6210   11.8180    5.1313 H       1  UNL1        0.0271
     22 C           6.0471    9.7512    5.3626 C.3     1  UNL1       -0.0378
     23 H           5.0656    9.9938    5.7848 H       1  UNL1        0.0302
     24 C           5.9303    8.5000    4.4912 C.3     1  UNL1       -0.0472
     25 H           5.5642    7.6634    5.0902 H       1  UNL1        0.0271
     26 H           5.2146    8.6733    3.6844 H       1  UNL1        0.0271
@<TRIPOS>BOND
     1    16    14    1
     2    15    14    1
     3    14    12    1
     4    14    17    1
     5    13    12    1
     6    18    17    1
     7    26    24    1
     8    20    19    1
     9    12    24    1
    10    12     3    1
    11    17    19    1
    12    17     6    1
    13    24    25    1
    14    24    22    1
    15    19    21    1
    16    19    22    1
    17     5     3    1
    18     8     6    1
    19     3     4    1
    20     3     2    1
    21     6     7    1
    22     6     2    1
    23    22    23    1
    24    22     9    1
    25     2     9    1
    26     2     1    1
    27     9    11    1
    28     9    10    1
