@<TRIPOS>MOLECULE
1
 13 13 0 0 0
SMALL
GASTEIGER

@<TRIPOS>ATOM
      1 O           4.3599    5.2956    5.5003 O.3     1  UNL1       -0.3798
      2 C           4.6875    5.1716    6.8810 C.3     1  UNL1        0.0477
      3 H           5.0750    4.1642    7.0497 H       1  UNL1        0.0560
      4 H           3.7902    5.3351    7.4933 H       1  UNL1        0.0560
      5 C           5.7223    6.2720    7.1335 C.3     1  UNL1       -0.0274
      6 H           6.7162    5.9152    6.8682 H       1  UNL1        0.0288
      7 H           5.7328    6.5924    8.1727 H       1  UNL1        0.0288
      8 C           5.2777    7.3873    6.1755 C.3     1  UNL1       -0.0274
      9 H           4.8204    8.2161    6.7134 H       1  UNL1        0.0288
     10 H           6.1206    7.7772    5.6085 H       1  UNL1        0.0288
     11 C           4.2478    6.6991    5.2589 C.3     1  UNL1        0.0477
     12 H           3.2287    7.0192    5.5171 H       1  UNL1        0.0560
     13 H           4.4374    6.8487    4.1913 H       1  UNL1        0.0560
@<TRIPOS>BOND
     1    13    11    1
     2    11     1    1
     3    11    12    1
     4    11     8    1
     5     1     2    1
     6    10     8    1
     7     8     9    1
     8     8     5    1
     9     6     5    1
    10     2     3    1
    11     2     5    1
    12     2     4    1
    13     5     7    1
