@<TRIPOS>MOLECULE
1
 13 13 0 0 0
SMALL
GASTEIGER

@<TRIPOS>ATOM
      1 O           2.5479    6.4846   12.6209 O.3     1  UNL1       -0.3798
      2 C           2.6353    6.2409   11.2175 C.3     1  UNL1        0.0477
      3 H           1.7302    5.7189   10.9103 H       1  UNL1        0.0560
      4 H           3.5101    5.6070   11.0148 H       1  UNL1        0.0560
      5 C           2.8055    7.6140   10.5428 C.3     1  UNL1       -0.0274
      6 H           3.5864    7.5772    9.7857 H       1  UNL1        0.0288
      7 H           1.8813    7.9327   10.0663 H       1  UNL1        0.0288
      8 C           3.1805    8.5466   11.7060 C.3     1  UNL1       -0.0274
      9 H           2.3460    9.1999   11.9586 H       1  UNL1        0.0288
     10 H           4.0511    9.1607   11.4894 H       1  UNL1        0.0288
     11 C           3.4423    7.5693   12.8542 C.3     1  UNL1        0.0477
     12 H           4.4778    7.2033   12.8233 H       1  UNL1        0.0560
     13 H           3.2323    7.9828   13.8397 H       1  UNL1        0.0560
@<TRIPOS>BOND
     1     6     5    1
     2     7     5    1
     3     5     2    1
     4     5     8    1
     5     3     2    1
     6     4     2    1
     7     2     1    1
     8    10     8    1
     9     8     9    1
    10     8    11    1
    11     1    11    1
    12    12    11    1
    13    11    13    1
