@<TRIPOS>MOLECULE
1
 13 13 0 0 0
SMALL
GASTEIGER

@<TRIPOS>ATOM
      1 O           3.9752    5.1483    9.3192 O.3     1  UNL1       -0.3798
      2 C           2.6914    4.5289    9.4452 C.3     1  UNL1        0.0477
      3 H           2.7736    3.6647   10.1223 H       1  UNL1        0.0560
      4 H           2.3760    4.1913    8.4585 H       1  UNL1        0.0560
      5 C           1.7706    5.5898   10.0320 C.3     1  UNL1       -0.0274
      6 H           0.8958    5.1615   10.5149 H       1  UNL1        0.0288
      7 H           1.4540    6.2765    9.2468 H       1  UNL1        0.0288
      8 C           2.7158    6.2883   11.0043 C.3     1  UNL1       -0.0274
      9 H           2.4104    7.3050   11.2370 H       1  UNL1        0.0288
     10 H           2.7917    5.7222   11.9342 H       1  UNL1        0.0288
     11 C           4.0390    6.2525   10.2384 C.3     1  UNL1        0.0477
     12 H           4.1767    7.1705    9.6585 H       1  UNL1        0.0560
     13 H           4.9009    6.1143   10.9002 H       1  UNL1        0.0560
@<TRIPOS>BOND
     1     4     2    1
     2     7     5    1
     3     1     2    1
     4     1    11    1
     5     2     5    1
     6     2     3    1
     7    12    11    1
     8     5     6    1
     9     5     8    1
    10    11    13    1
    11    11     8    1
    12     8     9    1
    13     8    10    1
