@<TRIPOS>MOLECULE
1
 13 13 0 0 0
SMALL
GASTEIGER

@<TRIPOS>ATOM
      1 O           5.6454    2.8578    9.0016 O.3     1  UNL1       -0.3798
      2 C           5.6782    1.4513    8.7518 C.3     1  UNL1        0.0477
      3 H           5.7122    1.3048    7.6725 H       1  UNL1        0.0560
      4 H           4.7648    0.9940    9.1600 H       1  UNL1        0.0560
      5 C           6.9252    0.9056    9.4670 C.3     1  UNL1       -0.0274
      6 H           7.7211    0.7144    8.7502 H       1  UNL1        0.0288
      7 H           6.6980   -0.0212    9.9904 H       1  UNL1        0.0288
      8 C           7.3154    2.0330   10.4362 C.3     1  UNL1       -0.0274
      9 H           7.4569    1.6819   11.4559 H       1  UNL1        0.0288
     10 H           8.2315    2.5204   10.1057 H       1  UNL1        0.0288
     11 C           6.1366    3.0041   10.3291 C.3     1  UNL1        0.0477
     12 H           5.3459    2.7291   11.0437 H       1  UNL1        0.0560
     13 H           6.4156    4.0482   10.4777 H       1  UNL1        0.0560
@<TRIPOS>BOND
     1     3     2    1
     2     6     5    1
     3     2     1    1
     4     2     4    1
     5     2     5    1
     6     1    11    1
     7     5     7    1
     8     5     8    1
     9    10     8    1
    10    11     8    1
    11    11    13    1
    12    11    12    1
    13     8     9    1
