@<TRIPOS>MOLECULE
2
 63 66 0 0 0
SMALL
GASTEIGER

@<TRIPOS>ATOM
      1 SI          5.1878    8.0827   17.5962 Si      1  UNL1        0.0000
      2 O           5.2493   10.2736   15.8895 O.3     1  UNL1        0.0000
      3 N           6.4734    6.9560   17.8468 N.2     1  UNL1        0.0000
      4 C           6.1364    9.4635   16.5900 C.3     1  UNL1        0.0000
      5 C           7.0439    8.7529   15.6315 C.2     1  UNL1        0.0000
      6 C           7.7668    7.6353   15.9420 C.2     1  UNL1        0.0000
      7 C           7.5598    6.8787   17.1910 C.2     1  UNL1        0.0000
      8 C           6.8961   10.2837   17.6082 C.ar    1  UNL1        0.0000
      9 C           8.2670   10.2045   17.8175 C.ar    1  UNL1        0.0000
     10 H           8.8726    9.5335   17.2266 H       1  UNL1        0.0000
     11 C           8.8728   10.9968   18.7783 C.ar    1  UNL1        0.0000
     12 H           9.9403   10.9260   18.9295 H       1  UNL1        0.0000
     13 C           8.1233   11.8794   19.5360 C.ar    1  UNL1        0.0000
     14 H           8.6011   12.4963   20.2822 H       1  UNL1        0.0000
     15 C           6.7546   11.9621   19.3329 C.ar    1  UNL1        0.0000
     16 H           6.1610   12.6404   19.9284 H       1  UNL1        0.0000
     17 C           6.1448   11.1676   18.3807 C.ar    1  UNL1        0.0000
     18 H           5.0708   11.1988   18.2303 H       1  UNL1        0.0000
     19 C           7.1541    9.3729   14.3023 C.ar    1  UNL1        0.0000
     20 C           7.4153   10.7404   14.1941 C.ar    1  UNL1        0.0000
     21 H           7.5624   11.3265   15.0919 H       1  UNL1        0.0000
     22 C           7.5685   11.3267   12.9500 C.ar    1  UNL1        0.0000
     23 H           7.8045   12.3789   12.8777 H       1  UNL1        0.0000
     24 C           7.4414   10.5662   11.7983 C.ar    1  UNL1        0.0000
     25 H           7.5667   11.0247   10.8282 H       1  UNL1        0.0000
     26 C           7.1471    9.2152   11.8969 C.ar    1  UNL1        0.0000
     27 H           7.0318    8.6204   11.0025 H       1  UNL1        0.0000
     28 C           7.0014    8.6226   13.1376 C.ar    1  UNL1        0.0000
     29 H           6.7667    7.5712   13.2074 H       1  UNL1        0.0000
     30 C           8.6980    7.1757   14.9879 C.1     1  UNL1        0.0000
     31 C           9.4933    6.8767   14.1260 C.1     1  UNL1        0.0000
     32 C          10.4002    6.4977   13.1172 C.ar    1  UNL1        0.0000
     33 C          10.4955    7.2656   11.9534 C.ar    1  UNL1        0.0000
     34 H           9.8757    8.1450   11.8507 H       1  UNL1        0.0000
     35 C          11.3721    6.8952   10.9534 C.ar    1  UNL1        0.0000
     36 H          11.4421    7.4898   10.0539 H       1  UNL1        0.0000
     37 C          12.1615    5.7645   11.0985 C.ar    1  UNL1        0.0000
     38 H          12.8454    5.4786   10.3132 H       1  UNL1        0.0000
     39 C          12.0728    5.0018   12.2526 C.ar    1  UNL1        0.0000
     40 H          12.6888    4.1216   12.3659 H       1  UNL1        0.0000
     41 C          11.1993    5.3612   13.2600 C.ar    1  UNL1        0.0000
     42 H          11.1266    4.7696   14.1613 H       1  UNL1        0.0000
     43 C           8.6192    5.9167   17.7010 C.3     1  UNL1        0.0000
     44 C           8.6288    4.6601   16.8195 C.3     1  UNL1        0.0000
     45 H           8.8893    4.8994   15.7930 H       1  UNL1        0.0000
     46 H           7.6463    4.1942   16.8307 H       1  UNL1        0.0000
     47 H           9.3544    3.9487   17.2080 H       1  UNL1        0.0000
     48 C           9.9974    6.5864   17.7082 C.3     1  UNL1        0.0000
     49 H          10.3119    6.8713   16.7084 H       1  UNL1        0.0000
     50 H          10.7341    5.8972   18.1156 H       1  UNL1        0.0000
     51 H           9.9768    7.4745   18.3369 H       1  UNL1        0.0000
     52 C           8.2678    5.5038   19.1332 C.3     1  UNL1        0.0000
     53 H           8.2297    6.3772   19.7782 H       1  UNL1        0.0000
     54 H           9.0158    4.8128   19.5145 H       1  UNL1        0.0000
     55 H           7.2936    5.0266   19.1588 H       1  UNL1        0.0000
     56 C           4.6213    8.6002   19.3321 C.3     1  UNL1        0.0000
     57 H           4.2843    7.7151   19.8596 H       1  UNL1        0.0000
     58 H           3.7889    9.2932   19.2758 H       1  UNL1        0.0000
     59 H           5.4132    9.0540   19.9181 H       1  UNL1        0.0000
     60 C           3.7359    7.3865   16.5862 C.3     1  UNL1        0.0000
     61 H           3.2341    6.6134   17.1581 H       1  UNL1        0.0000
     62 H           4.0496    6.9470   15.6439 H       1  UNL1        0.0000
     63 H           3.0166    8.1774   16.3859 H       1  UNL1        0.0000
@<TRIPOS>BOND
     1    36    35    1
     2    38    37    1
     3    25    24    1
     4    35    37   ar
     5    35    33   ar
     6    27    26    1
     7    37    39   ar
     8    24    26   ar
     9    24    22   ar
    10    34    33    1
    11    26    28   ar
    12    33    32   ar
    13    39    40    1
    14    39    41   ar
    15    23    22    1
    16    22    20   ar
    17    32    41   ar
    18    32    31    1
    19    28    29    1
    20    28    19   ar
    21    41    42    1
    22    31    30    3
    23    20    19   ar
    24    20    21    1
    25    19     5    1
    26    30     6    1
    27     5     6    2
    28     5     4    1
    29    62    60    1
    30    45    44    1
    31     2     4    1
    32     6     7    1
    33    63    60    1
    34    60    61    1
    35    60     1    1
    36     4     1    1
    37     4     8    1
    38    49    48    1
    39    44    46    1
    40    44    47    1
    41    44    43    1
    42     7    43    1
    43     7     3    2
    44    10     9    1
    45     1     3    1
    46     1    56    1
    47     8     9   ar
    48     8    17   ar
    49    43    48    1
    50    43    52    1
    51    48    50    1
    52    48    51    1
    53     9    11   ar
    54    18    17    1
    55    17    15   ar
    56    11    12    1
    57    11    13   ar
    58    52    55    1
    59    52    54    1
    60    52    53    1
    61    58    56    1
    62    56    57    1
    63    56    59    1
    64    15    13   ar
    65    15    16    1
    66    13    14    1
