@<TRIPOS>MOLECULE
1
 13 13 0 0 0
SMALL
GASTEIGER

@<TRIPOS>ATOM
      1 O           5.7500   13.5842    2.3080 O.3     1  UNL1       -0.3798
      2 C           6.0991   12.4399    1.5332 C.3     1  UNL1        0.0477
      3 H           7.1829   12.4269    1.4105 H       1  UNL1        0.0560
      4 H           5.6156   12.4952    0.5459 H       1  UNL1        0.0560
      5 C           5.5601   11.2582    2.3301 C.3     1  UNL1       -0.0274
      6 H           6.2194   11.0567    3.1746 H       1  UNL1        0.0288
      7 H           5.4606   10.3562    1.7312 H       1  UNL1        0.0288
      8 C           4.2174   11.8085    2.8134 C.3     1  UNL1       -0.0274
      9 H           3.4340   11.5861    2.0885 H       1  UNL1        0.0288
     10 H           3.9225   11.3945    3.7743 H       1  UNL1        0.0288
     11 C           4.4625   13.3244    2.8965 C.3     1  UNL1        0.0477
     12 H           3.6982   13.8790    2.3419 H       1  UNL1        0.0560
     13 H           4.5034   13.6915    3.9255 H       1  UNL1        0.0560
@<TRIPOS>BOND
     1     4     2    1
     2     3     2    1
     3     2     1    1
     4     2     5    1
     5     7     5    1
     6     9     8    1
     7     1    11    1
     8     5     8    1
     9     5     6    1
    10    12    11    1
    11     8    11    1
    12     8    10    1
    13    11    13    1
