@<TRIPOS>MOLECULE
4
 14 13 0 0 0
SMALL
GASTEIGER

@<TRIPOS>ATOM
      1 F          -0.9004   -1.5077    3.6020 F       1  UNL1       -0.1675
      2 F          -1.5512   -2.9285    5.0655 F       1  UNL1       -0.1675
      3 F          -2.9684   -1.5595    4.1856 F       1  UNL1       -0.1675
      4 O          -1.0560   -4.2200    2.8496 O.3     1  UNL1       -0.2188
      5 C          -2.1574   -3.3987    2.8131 C.3     1  UNL1        0.1928
      6 C          -1.9161   -2.3414    3.9109 C.3     1  UNL1        0.4209
      7 C          -2.2913   -2.6996    1.4529 C.3     1  UNL1       -0.0245
      8 H          -1.3178   -2.2923    1.1697 H       1  UNL1        0.0261
      9 H          -3.0340   -1.9066    1.4951 H       1  UNL1        0.0261
     10 H          -2.5854   -3.4356    0.7089 H       1  UNL1        0.0261
     11 C          -3.4276   -4.1860    3.1759 C.3     1  UNL1       -0.0245
     12 H          -3.5586   -4.9827    2.4480 H       1  UNL1        0.0261
     13 H          -3.3155   -4.6326    4.1629 H       1  UNL1        0.0261
     14 H          -4.2985   -3.5361    3.1684 H       1  UNL1        0.0261
@<TRIPOS>BOND
     1    10     7    1
     2     8     7    1
     3     7     9    1
     4     7     5    1
     5    12    11    1
     6     5     4    1
     7     5    11    1
     8     5     6    1
     9    14    11    1
    10    11    13    1
    11     1     6    1
    12     6     3    1
    13     6     2    1
