@<TRIPOS>MOLECULE
4
 14 13 0 0 0
SMALL
GASTEIGER

@<TRIPOS>ATOM
      1 F          -0.8041   -1.9714    3.8757 F       1  UNL1       -0.1675
      2 F          -1.1926   -3.7707    4.9887 F       1  UNL1       -0.1675
      3 F          -2.6580   -2.1700    4.9688 F       1  UNL1       -0.1675
      4 O          -1.3143   -4.3424    2.5286 O.3     1  UNL1       -0.2188
      5 C          -2.3503   -3.5354    2.9326 C.3     1  UNL1        0.1928
      6 C          -1.8036   -2.8445    4.2043 C.3     1  UNL1        0.4209
      7 C          -2.6834   -2.4650    1.8776 C.3     1  UNL1       -0.0245
      8 H          -1.7487   -2.0498    1.4899 H       1  UNL1        0.0261
      9 H          -3.3017   -1.6752    2.2986 H       1  UNL1        0.0261
     10 H          -3.2111   -2.9394    1.0549 H       1  UNL1        0.0261
     11 C          -3.5883   -4.3614    3.3191 C.3     1  UNL1       -0.0245
     12 H          -3.3324   -5.0690    4.1060 H       1  UNL1        0.0261
     13 H          -3.9116   -4.9218    2.4464 H       1  UNL1        0.0261
     14 H          -4.3927   -3.7140    3.6587 H       1  UNL1        0.0261
@<TRIPOS>BOND
     1    10     7    1
     2     8     7    1
     3     7     9    1
     4     7     5    1
     5    13    11    1
     6     4     5    1
     7     5    11    1
     8     5     6    1
     9    11    14    1
    10    11    12    1
    11     1     6    1
    12     6     3    1
    13     6     2    1
