@<TRIPOS>MOLECULE
4
 14 13 0 0 0
SMALL
GASTEIGER

@<TRIPOS>ATOM
      1 F           0.8630   -3.0922    7.2042 F       1  UNL1       -0.1675
      2 F           2.8881   -2.5168    7.6496 F       1  UNL1       -0.1675
      3 F           2.4781   -4.4497    6.8008 F       1  UNL1       -0.1675
      4 O           1.3819   -3.3234    4.5419 O.3     1  UNL1       -0.2188
      5 C           2.2443   -2.5798    5.3255 C.3     1  UNL1        0.1928
      6 C           2.1240   -3.1585    6.7503 C.3     1  UNL1        0.4209
      7 C           3.6909   -2.7256    4.8370 C.3     1  UNL1       -0.0245
      8 H           3.9823   -3.7746    4.8373 H       1  UNL1        0.0261
      9 H           4.3685   -2.1620    5.4735 H       1  UNL1        0.0261
     10 H           3.7398   -2.3504    3.8147 H       1  UNL1        0.0261
     11 C           1.8252   -1.1013    5.3591 C.3     1  UNL1       -0.0245
     12 H           0.8288   -0.9963    5.7855 H       1  UNL1        0.0261
     13 H           1.8161   -0.7267    4.3362 H       1  UNL1        0.0261
     14 H           2.5259   -0.5211    5.9537 H       1  UNL1        0.0261
@<TRIPOS>BOND
     1    10     7    1
     2    13    11    1
     3     4     5    1
     4     7     8    1
     5     7     5    1
     6     7     9    1
     7     5    11    1
     8     5     6    1
     9    11    12    1
    10    11    14    1
    11     6     3    1
    12     6     1    1
    13     6     2    1
