@<TRIPOS>MOLECULE
4
 14 13 0 0 0
SMALL
GASTEIGER

@<TRIPOS>ATOM
      1 F           0.6710   -3.6035    7.1818 F       1  UNL1       -0.1675
      2 F           2.5957   -2.9020    7.8423 F       1  UNL1       -0.1675
      3 F           2.4510   -4.6554    6.6055 F       1  UNL1       -0.1675
      4 O           1.3310   -3.2130    4.5448 O.3     1  UNL1       -0.2188
      5 C           2.0454   -2.5640    5.5210 C.3     1  UNL1        0.1928
      6 C           1.9404   -3.4295    6.7958 C.3     1  UNL1        0.4209
      7 C           3.5210   -2.4641    5.1065 C.3     1  UNL1       -0.0245
      8 H           3.9250   -3.4632    4.9323 H       1  UNL1        0.0261
      9 H           3.5776   -1.8996    4.1752 H       1  UNL1        0.0261
     10 H           4.1051   -1.9663    5.8768 H       1  UNL1        0.0261
     11 C           1.4465   -1.1824    5.8195 C.3     1  UNL1       -0.0245
     12 H           1.4647   -0.5892    4.9071 H       1  UNL1        0.0261
     13 H           2.0192   -0.6794    6.5944 H       1  UNL1        0.0261
     14 H           0.4145   -1.2884    6.1509 H       1  UNL1        0.0261
@<TRIPOS>BOND
     1     9     7    1
     2     4     5    1
     3    12    11    1
     4     8     7    1
     5     7     5    1
     6     7    10    1
     7     5    11    1
     8     5     6    1
     9    11    14    1
    10    11    13    1
    11     3     6    1
    12     6     1    1
    13     6     2    1
