@<TRIPOS>MOLECULE
2
 32 31 0 0 0
SMALL
GASTEIGER

@<TRIPOS>ATOM
      1 SI          5.5534    1.7276    8.1407 Si      1  UNL1        0.0000
      2 O           5.7756    1.5417    6.5549 O.3     1  UNL1        0.0000
      3 C           3.8253    0.9409    8.4849 C.3     1  UNL1        0.0000
      4 C           2.7583    1.5652    7.5840 C.3     1  UNL1        0.0000
      5 C           3.3772    0.9615    9.9444 C.3     1  UNL1        0.0000
      6 C           5.7329    3.6396    8.4237 C.3     1  UNL1        0.0000
      7 C           5.4827    4.3985    7.1203 C.3     1  UNL1        0.0000
      8 C           4.8467    4.1866    9.5395 C.3     1  UNL1        0.0000
      9 C           6.9708    0.8072    9.0751 C.3     1  UNL1        0.0000
     10 C           6.7364   -0.7016    9.1342 C.3     1  UNL1        0.0000
     11 C           8.3029    1.0796    8.3774 C.3     1  UNL1        0.0000
     12 H           3.9179   -0.1085    8.1794 H       1  UNL1        0.0000
     13 H           2.5976    2.6114    7.8367 H       1  UNL1        0.0000
     14 H           1.8090    1.0409    7.6952 H       1  UNL1        0.0000
     15 H           3.0693    1.5021    6.5394 H       1  UNL1        0.0000
     16 H           4.1445    0.5450   10.5920 H       1  UNL1        0.0000
     17 H           2.4658    0.3774   10.0715 H       1  UNL1        0.0000
     18 H           3.1738    1.9774   10.2711 H       1  UNL1        0.0000
     19 H           6.7707    3.8343    8.7168 H       1  UNL1        0.0000
     20 H           6.2298    4.1201    6.3752 H       1  UNL1        0.0000
     21 H           5.5500    5.4748    7.2804 H       1  UNL1        0.0000
     22 H           4.4973    4.1683    6.7149 H       1  UNL1        0.0000
     23 H           3.7965    4.0900    9.2776 H       1  UNL1        0.0000
     24 H           5.0553    5.2432    9.7084 H       1  UNL1        0.0000
     25 H           5.0237    3.6498   10.4683 H       1  UNL1        0.0000
     26 H           7.0411    1.1815   10.1031 H       1  UNL1        0.0000
     27 H           5.8302   -0.9387    9.6860 H       1  UNL1        0.0000
     28 H           7.5751   -1.1974    9.6232 H       1  UNL1        0.0000
     29 H           6.6438   -1.1015    8.1268 H       1  UNL1        0.0000
     30 H           8.2634    0.7094    7.3537 H       1  UNL1        0.0000
     31 H           9.1202    0.5763    8.8934 H       1  UNL1        0.0000
     32 H           8.5215    2.1442    8.3408 H       1  UNL1        0.0000
@<TRIPOS>BOND
     1    20     7    1
     2    15     4    1
     3     2     1    1
     4    22     7    1
     5     7    21    1
     6     7     6    1
     7    30    11    1
     8     4    14    1
     9     4    13    1
    10     4     3    1
    11    29    10    1
    12     1     6    1
    13     1     3    1
    14     1     9    1
    15    12     3    1
    16    32    11    1
    17    11    31    1
    18    11     9    1
    19     6    19    1
    20     6     8    1
    21     3     5    1
    22     9    10    1
    23     9    26    1
    24    10    28    1
    25    10    27    1
    26    23     8    1
    27     8    24    1
    28     8    25    1
    29     5    17    1
    30     5    18    1
    31     5    16    1
