@<TRIPOS>MOLECULE
1
 11 11 0 0 0
SMALL
GASTEIGER

@<TRIPOS>ATOM
      1 O           0.0206    4.8226   12.2696 O.3     1  UNL1       -0.3792
      2 C          -1.3624    5.0878   12.0447 C.3     1  UNL1        0.0483
      3 C          -1.8010    5.9683   13.2280 C.3     1  UNL1       -0.0205
      4 C          -0.8622    5.6632   14.3415 C.3     1  UNL1        0.0130
      5 C           0.1764    4.8401   13.7118 C.3     1  UNL1        0.0546
      6 H          -1.9198    4.1387   12.0473 H       1  UNL1        0.0560
      7 H          -1.4682    5.5653   11.0700 H       1  UNL1        0.0560
      8 H          -1.6800    7.0328   13.0029 H       1  UNL1        0.0294
      9 H          -2.8393    5.8195   13.5261 H       1  UNL1        0.0294
     10 H           1.1937    5.1587   13.9518 H       1  UNL1        0.0566
     11 H           0.0384    3.8213   14.1150 H       1  UNL1        0.0566
@<TRIPOS>BOND
     1     7     2    1
     2     2     6    1
     3     2     1    1
     4     2     3    1
     5     1     5    1
     6     8     3    1
     7     3     9    1
     8     3     4    1
     9     5    10    1
    10     5    11    1
    11     5     4    1
