@<TRIPOS>MOLECULE
1
 13 13 0 0 0
SMALL
GASTEIGER

@<TRIPOS>ATOM
      1 O          15.7435    1.7561    6.8843 O.3     1  UNL1       -0.3798
      2 C          16.2052    0.4350    6.6130 C.3     1  UNL1        0.0477
      3 C          15.9449    0.2082    5.1163 C.3     1  UNL1       -0.0274
      4 C          14.8299    1.2152    4.7841 C.3     1  UNL1       -0.0274
      5 C          14.5359    1.8822    6.1335 C.3     1  UNL1        0.0477
      6 H          17.2628    0.3968    6.8859 H       1  UNL1        0.0560
      7 H          15.6330   -0.2783    7.2239 H       1  UNL1        0.0560
      8 H          16.8416    0.4223    4.5378 H       1  UNL1        0.0288
      9 H          15.6448   -0.8188    4.9188 H       1  UNL1        0.0288
     10 H          15.1785    1.9539    4.0644 H       1  UNL1        0.0288
     11 H          13.9426    0.7338    4.3791 H       1  UNL1        0.0288
     12 H          14.2904    2.9436    6.0566 H       1  UNL1        0.0560
     13 H          13.7264    1.3551    6.6584 H       1  UNL1        0.0560
@<TRIPOS>BOND
     1    10     4    1
     2    11     4    1
     3     8     3    1
     4     4     3    1
     5     4     5    1
     6     9     3    1
     7     3     2    1
     8    12     5    1
     9     5    13    1
    10     5     1    1
    11     2     1    1
    12     2     6    1
    13     2     7    1
