@<TRIPOS>MOLECULE
1
 13 13 0 0 0
SMALL
GASTEIGER

@<TRIPOS>ATOM
      1 O           4.5290    4.7721    2.5945 O.3     1  UNL1       -0.3798
      2 C           4.0713    5.3810    3.8173 C.3     1  UNL1        0.0477
      3 C           3.0825    6.4807    3.4246 C.3     1  UNL1       -0.0274
      4 C           2.6175    6.0179    2.0465 C.3     1  UNL1       -0.0274
      5 C           3.9108    5.4432    1.4871 C.3     1  UNL1        0.0477
      6 H           4.9420    5.7650    4.3616 H       1  UNL1        0.0560
      7 H           3.5858    4.5953    4.4106 H       1  UNL1        0.0560
      8 H           3.5898    7.4430    3.3458 H       1  UNL1        0.0288
      9 H           2.2688    6.5730    4.1401 H       1  UNL1        0.0288
     10 H           2.2187    6.8240    1.4358 H       1  UNL1        0.0288
     11 H           1.8677    5.2320    2.1424 H       1  UNL1        0.0288
     12 H           4.5711    6.2466    1.1328 H       1  UNL1        0.0560
     13 H           3.7673    4.7155    0.6858 H       1  UNL1        0.0560
@<TRIPOS>BOND
     1    13     5    1
     2    12     5    1
     3    10     4    1
     4     5     4    1
     5     5     1    1
     6     4    11    1
     7     4     3    1
     8     1     2    1
     9     8     3    1
    10     3     2    1
    11     3     9    1
    12     2     6    1
    13     2     7    1
