@<TRIPOS>MOLECULE
1
 13 13 0 0 0
SMALL
GASTEIGER

@<TRIPOS>ATOM
      1 O          -0.1458    4.5346    2.2038 O.3     1  UNL1       -0.3798
      2 C          -0.6838    3.3938    1.5365 C.3     1  UNL1        0.0477
      3 H          -1.6965    3.1930    1.9193 H       1  UNL1        0.0560
      4 H          -0.0291    2.5411    1.7560 H       1  UNL1        0.0560
      5 C          -0.7395    3.7655    0.0476 C.3     1  UNL1       -0.0274
      6 H           0.1361    3.3836   -0.4738 H       1  UNL1        0.0288
      7 H          -1.6277    3.3541   -0.4272 H       1  UNL1        0.0288
      8 C          -0.6836    5.6760    1.5372 C.3     1  UNL1        0.0477
      9 H          -1.6961    5.8769    1.9204 H       1  UNL1        0.0560
     10 H          -0.0286    6.5283    1.7571 H       1  UNL1        0.0560
     11 C          -0.7399    5.3052    0.0481 C.3     1  UNL1       -0.0274
     12 H           0.1352    5.6879   -0.4735 H       1  UNL1        0.0288
     13 H          -1.6285    5.7165   -0.4259 H       1  UNL1        0.0288
@<TRIPOS>BOND
     1     6     5    1
     2    12    11    1
     3     7     5    1
     4    13    11    1
     5     5    11    1
     6     5     2    1
     7    11     8    1
     8     2     4    1
     9     2     3    1
    10     2     1    1
    11     8    10    1
    12     8     9    1
    13     8     1    1
