@<TRIPOS>MOLECULE
1
 18 18 0 0 0
SMALL
GASTEIGER

@<TRIPOS>ATOM
      1 O           1.6445   21.4423   14.8658 O.3     1  UNL1       -0.2873
      2 C           0.3351   21.2917   15.0295 C.ar    1  UNL1        0.1847
      3 C          -0.1782   20.2354   15.8175 C.ar    1  UNL1       -0.0035
      4 C          -1.5458   20.0945   15.9705 C.ar    1  UNL1       -0.0552
      5 H          -1.9285   19.2779   16.5688 H       1  UNL1        0.0621
      6 C          -2.4295   20.9787   15.3743 C.ar    1  UNL1       -0.0610
      7 H          -3.4950   20.8518   15.4989 H       1  UNL1        0.0618
      8 C          -1.9351   22.0326   14.6251 C.ar    1  UNL1       -0.0552
      9 H          -2.6208   22.7347   14.1690 H       1  UNL1        0.0621
     10 C          -0.5734   22.2060   14.4492 C.ar    1  UNL1       -0.0035
     11 C           0.7856   19.2900   16.4739 C.3     1  UNL1       -0.0361
     12 H           0.2587   18.4564   16.9338 H       1  UNL1        0.0279
     13 H           1.3554   19.8104   17.2456 H       1  UNL1        0.0279
     14 H           1.4954   18.9066   15.7360 H       1  UNL1        0.0279
     15 C          -0.0257   23.3626   13.6623 C.3     1  UNL1       -0.0361
     16 H          -0.8045   23.8264   13.0582 H       1  UNL1        0.0279
     17 H           0.7956   23.0267   13.0222 H       1  UNL1        0.0279
     18 H           0.3803   24.1160   14.3397 H       1  UNL1        0.0279
@<TRIPOS>BOND
     1    17    15    1
     2    16    15    1
     3    15    18    1
     4    15    10    1
     5     9     8    1
     6    10     8   ar
     7    10     2   ar
     8     8     6   ar
     9     1     2    1
    10     2     3   ar
    11     6     7    1
    12     6     4   ar
    13    14    11    1
    14     3     4   ar
    15     3    11    1
    16     4     5    1
    17    11    12    1
    18    11    13    1
