@<TRIPOS>MOLECULE
1
 96 97 0 0 0
SMALL
GASTEIGER

@<TRIPOS>ATOM
      1 O          16.8966    0.0906    3.6860 O.3     1  UNL1        0.0000
      2 SI         16.8067   -1.1512    2.6296 Si      1  UNL1        0.0000
      3 O          17.8717   -0.8701    1.4292 O.3     1  UNL1        0.0000
      4 H          18.1986    0.0509    1.3956 H       1  UNL1        0.0000
      5 N          17.1442   -2.6478    3.4015 N.pl3   1  UNL1        0.0000
      6 C          17.7833   -2.6651    4.6651 C.ar    1  UNL1        0.0000
      7 C          19.1664   -2.4847    4.7701 C.ar    1  UNL1        0.0000
      8 C          20.0203   -2.2537    3.5477 C.3     1  UNL1        0.0000
      9 H          19.3974   -2.4053    2.6674 H       1  UNL1        0.0000
     10 C          21.1904   -3.2370    3.4766 C.3     1  UNL1        0.0000
     11 H          21.8993   -3.0736    4.2851 H       1  UNL1        0.0000
     12 H          21.7191   -3.1158    2.5337 H       1  UNL1        0.0000
     13 H          20.8283   -4.2605    3.5399 H       1  UNL1        0.0000
     14 C          20.5205   -0.8073    3.5228 C.3     1  UNL1        0.0000
     15 H          19.6717   -0.1207    3.5227 H       1  UNL1        0.0000
     16 H          21.1060   -0.6283    2.6240 H       1  UNL1        0.0000
     17 H          21.1463   -0.6000    4.3899 H       1  UNL1        0.0000
     18 C          19.7548   -2.4993    6.0285 C.ar    1  UNL1        0.0000
     19 H          20.8213   -2.3552    6.1200 H       1  UNL1        0.0000
     20 C          19.0000   -2.6938    7.1683 C.ar    1  UNL1        0.0000
     21 H          19.4726   -2.7016    8.1398 H       1  UNL1        0.0000
     22 C          17.6349   -2.8761    7.0566 C.ar    1  UNL1        0.0000
     23 H          17.0466   -3.0227    7.9497 H       1  UNL1        0.0000
     24 C          17.0130   -2.8721    5.8159 C.ar    1  UNL1        0.0000
     25 C          15.5159   -3.0266    5.7091 C.3     1  UNL1        0.0000
     26 H          15.2874   -3.2706    4.6702 H       1  UNL1        0.0000
     27 C          14.8566   -1.6844    6.0334 C.3     1  UNL1        0.0000
     28 H          15.0965   -1.3809    7.0523 H       1  UNL1        0.0000
     29 H          13.7763   -1.7562    5.9371 H       1  UNL1        0.0000
     30 H          15.2170   -0.9306    5.3363 H       1  UNL1        0.0000
     31 C          14.9619   -4.1372    6.6016 C.3     1  UNL1        0.0000
     32 H          15.5174   -5.0606    6.4546 H       1  UNL1        0.0000
     33 H          13.9180   -4.3197    6.3561 H       1  UNL1        0.0000
     34 H          15.0160   -3.8680    7.6540 H       1  UNL1        0.0000
     35 SI         16.9770   -4.1158    2.4542 Si      1  UNL1        0.0000
     36 C          18.0886   -4.0672    0.9034 C.3     1  UNL1        0.0000
     37 H          18.1237   -3.0579    0.5077 H       1  UNL1        0.0000
     38 H          17.7015   -4.7181    0.1257 H       1  UNL1        0.0000
     39 H          19.1080   -4.3798    1.1113 H       1  UNL1        0.0000
     40 C          15.1754   -4.3821    1.9056 C.3     1  UNL1        0.0000
     41 H          14.5112   -4.6106    2.7336 H       1  UNL1        0.0000
     42 H          15.1098   -5.2061    1.2018 H       1  UNL1        0.0000
     43 H          14.8028   -3.4917    1.4116 H       1  UNL1        0.0000
     44 C          17.5370   -5.5290    3.6068 C.3     1  UNL1        0.0000
     45 H          18.5331   -5.3587    4.0011 H       1  UNL1        0.0000
     46 H          17.5499   -6.4687    3.0660 H       1  UNL1        0.0000
     47 H          16.8713   -5.6477    4.4544 H       1  UNL1        0.0000
     48 O          15.2911   -1.1723    2.0880 O.3     1  UNL1        0.0000
     49 SI         14.8318   -0.4806    0.6771 Si      1  UNL1        0.0000
     50 O          15.0757   -1.5442   -0.5244 O.3     1  UNL1        0.0000
     51 H          15.9568   -1.5913   -0.8904 H       1  UNL1        0.0000
     52 O          15.6861    0.8323    0.2888 O.3     1  UNL1        0.0000
     53 H          15.6987    1.5603    0.9410 H       1  UNL1        0.0000
     54 N          13.1459   -0.2250    0.9163 N.pl3   1  UNL1        0.0000
     55 C          12.4035    0.1380   -0.2373 C.ar    1  UNL1        0.0000
     56 C          12.2694    1.4843   -0.5921 C.ar    1  UNL1        0.0000
     57 C          12.8984    2.5854    0.2273 C.3     1  UNL1        0.0000
     58 H          13.4277    2.1283    1.0638 H       1  UNL1        0.0000
     59 C          11.8337    3.5272    0.7958 C.3     1  UNL1        0.0000
     60 H          11.2979    4.0388   -0.0007 H       1  UNL1        0.0000
     61 H          12.3011    4.2794    1.4290 H       1  UNL1        0.0000
     62 H          11.1140    2.9705    1.3901 H       1  UNL1        0.0000
     63 C          13.9203    3.3640   -0.6044 C.3     1  UNL1        0.0000
     64 H          14.6412    2.6776   -1.0390 H       1  UNL1        0.0000
     65 H          14.4549    4.0689    0.0296 H       1  UNL1        0.0000
     66 H          13.4352    3.9173   -1.4059 H       1  UNL1        0.0000
     67 C          11.5346    1.8115   -1.7239 C.ar    1  UNL1        0.0000
     68 H          11.4250    2.8479   -2.0072 H       1  UNL1        0.0000
     69 C          10.9375    0.8337   -2.4942 C.ar    1  UNL1        0.0000
     70 H          10.3650    1.1047   -3.3697 H       1  UNL1        0.0000
     71 C          11.0761   -0.4928   -2.1363 C.ar    1  UNL1        0.0000
     72 H          10.6040   -1.2548   -2.7384 H       1  UNL1        0.0000
     73 C          11.8088   -0.8593   -1.0159 C.ar    1  UNL1        0.0000
     74 C          11.9305   -2.3157   -0.6413 C.3     1  UNL1        0.0000
     75 H          12.6175   -2.3819    0.2028 H       1  UNL1        0.0000
     76 C          10.5690   -2.8713   -0.2167 C.3     1  UNL1        0.0000
     77 H          10.1634   -2.2857    0.6043 H       1  UNL1        0.0000
     78 H          10.6680   -3.9060    0.1059 H       1  UNL1        0.0000
     79 H           9.8633   -2.8372   -1.0440 H       1  UNL1        0.0000
     80 C          12.5235   -3.1377   -1.7856 C.3     1  UNL1        0.0000
     81 H          11.8768   -3.1287   -2.6598 H       1  UNL1        0.0000
     82 H          12.6582   -4.1700   -1.4696 H       1  UNL1        0.0000
     83 H          13.4916   -2.7284   -2.0577 H       1  UNL1        0.0000
     84 SI         12.3985   -0.3211    2.4966 Si      1  UNL1        0.0000
     85 C          12.4540   -2.0948    3.1983 C.3     1  UNL1        0.0000
     86 H          11.9809   -2.8116    2.5344 H       1  UNL1        0.0000
     87 H          11.9486   -2.1557    4.1583 H       1  UNL1        0.0000
     88 H          13.4854   -2.3960    3.3352 H       1  UNL1        0.0000
     89 C          10.5671    0.1996    2.3039 C.3     1  UNL1        0.0000
     90 H          10.3165    0.4220    1.2726 H       1  UNL1        0.0000
     91 H          10.3379    1.0771    2.8995 H       1  UNL1        0.0000
     92 H           9.9059   -0.5920    2.6399 H       1  UNL1        0.0000
     93 C          13.2530    0.8668    3.7254 C.3     1  UNL1        0.0000
     94 H          14.3325    0.7250    3.6727 H       1  UNL1        0.0000
     95 H          12.9324    0.6757    4.7454 H       1  UNL1        0.0000
     96 H          13.0459    1.9092    3.4996 H       1  UNL1        0.0000
@<TRIPOS>BOND
     1    70    69    1
     2    72    71    1
     3    81    80    1
     4    69    71   ar
     5    69    67   ar
     6    71    73   ar
     7    83    80    1
     8    68    67    1
     9    80    82    1
    10    80    74    1
    11    67    56   ar
    12    66    63    1
    13    79    76    1
    14    64    63    1
    15    73    74    1
    16    73    55   ar
    17    51    50    1
    18    74    76    1
    19    74    75    1
    20    63    65    1
    21    63    57    1
    22    56    55   ar
    23    56    57    1
    24    50    49    1
    25    55    54    1
    26    76    78    1
    27    76    77    1
    28    60    59    1
    29    38    36    1
    30    57    59    1
    31    57    58    1
    32    52    49    1
    33    52    53    1
    34    37    36    1
    35    49    54    1
    36    49    48    1
    37    59    62    1
    38    59    61    1
    39    36    39    1
    40    36    35    1
    41    54    84    1
    42    42    40    1
    43    90    89    1
    44     4     3    1
    45    43    40    1
    46     3     2    1
    47    40    35    1
    48    40    41    1
    49    48     2    1
    50    89    84    1
    51    89    92    1
    52    89    91    1
    53    35     5    1
    54    35    44    1
    55    84    85    1
    56    84    93    1
    57    12    10    1
    58    86    85    1
    59    16    14    1
    60     2     5    1
    61     2     1    1
    62     9     8    1
    63    46    44    1
    64    85    88    1
    65    85    87    1
    66     5     6    1
    67    10    13    1
    68    10     8    1
    69    10    11    1
    70    96    93    1
    71    15    14    1
    72    14     8    1
    73    14    17    1
    74     8     7    1
    75    44    45    1
    76    44    47    1
    77    94    93    1
    78    93    95    1
    79     6     7   ar
    80     6    24   ar
    81    26    25    1
    82     7    18   ar
    83    30    27    1
    84    25    24    1
    85    25    27    1
    86    25    31    1
    87    24    22   ar
    88    29    27    1
    89    18    19    1
    90    18    20   ar
    91    27    28    1
    92    33    31    1
    93    32    31    1
    94    31    34    1
    95    22    20   ar
    96    22    23    1
    97    20    21    1
