@<TRIPOS>MOLECULE
2
 35 37 0 0 0
SMALL
GASTEIGER

@<TRIPOS>ATOM
      1 SI          7.2805    2.4600    5.4718 Si      1  UNL1        0.0000
      2 O           7.7394    2.6960    6.9938 O.3     1  UNL1        0.0000
      3 C           8.4824    3.4327    4.3671 C.ar    1  UNL1        0.0000
      4 C           9.5307    4.1220    4.9723 C.ar    1  UNL1        0.0000
      5 H           9.6414    4.0511    6.0469 H       1  UNL1        0.0000
      6 C          10.4129    4.8853    4.2305 C.ar    1  UNL1        0.0000
      7 H          11.2096    5.4213    4.7255 H       1  UNL1        0.0000
      8 C          10.2663    4.9649    2.8558 C.ar    1  UNL1        0.0000
      9 H          10.9520    5.5602    2.2704 H       1  UNL1        0.0000
     10 C           9.2371    4.2785    2.2341 C.ar    1  UNL1        0.0000
     11 H           9.1209    4.3369    1.1610 H       1  UNL1        0.0000
     12 C           8.3536    3.5248    2.9861 C.ar    1  UNL1        0.0000
     13 H           7.5472    3.0023    2.4939 H       1  UNL1        0.0000
     14 C           5.5000    3.1059    5.3162 C.ar    1  UNL1        0.0000
     15 C           4.9043    3.6844    6.4347 C.ar    1  UNL1        0.0000
     16 H           5.4902    3.7767    7.3404 H       1  UNL1        0.0000
     17 C           3.5958    4.1294    6.4036 C.ar    1  UNL1        0.0000
     18 H           3.1526    4.5618    7.2890 H       1  UNL1        0.0000
     19 C           2.8563    4.0113    5.2388 C.ar    1  UNL1        0.0000
     20 H           1.8329    4.3561    5.2083 H       1  UNL1        0.0000
     21 C           3.4338    3.4489    4.1130 C.ar    1  UNL1        0.0000
     22 H           2.8600    3.3569    3.2015 H       1  UNL1        0.0000
     23 C           4.7410    2.9981    4.1566 C.ar    1  UNL1        0.0000
     24 H           5.1791    2.5507    3.2771 H       1  UNL1        0.0000
     25 C           7.3803    0.5917    5.1392 C.ar    1  UNL1        0.0000
     26 C           7.7617   -0.2486    6.1826 C.ar    1  UNL1        0.0000
     27 H           7.9521    0.1902    7.1539 H       1  UNL1        0.0000
     28 C           7.9018   -1.6110    5.9946 C.ar    1  UNL1        0.0000
     29 H           8.2125   -2.2391    6.8168 H       1  UNL1        0.0000
     30 C           7.6502   -2.1633    4.7499 C.ar    1  UNL1        0.0000
     31 H           7.7587   -3.2271    4.5961 H       1  UNL1        0.0000
     32 C           7.2590   -1.3464    3.7026 C.ar    1  UNL1        0.0000
     33 H           7.0597   -1.7744    2.7302 H       1  UNL1        0.0000
     34 C           7.1309    0.0172    3.8982 C.ar    1  UNL1        0.0000
     35 H           6.8366    0.6477    3.0727 H       1  UNL1        0.0000
@<TRIPOS>BOND
     1    11    10    1
     2    10     8   ar
     3    10    12   ar
     4     9     8    1
     5    13    12    1
     6    33    32    1
     7     8     6   ar
     8    12     3   ar
     9    35    34    1
    10    22    21    1
    11    24    23    1
    12    32    34   ar
    13    32    30   ar
    14    34    25   ar
    15    21    23   ar
    16    21    19   ar
    17    23    14   ar
    18     6     7    1
    19     6     4   ar
    20     3     4   ar
    21     3     1    1
    22    31    30    1
    23    30    28   ar
    24     4     5    1
    25    25     1    1
    26    25    26   ar
    27    20    19    1
    28    19    17   ar
    29    14     1    1
    30    14    15   ar
    31     1     2    1
    32    28    26   ar
    33    28    29    1
    34    26    27    1
    35    17    15   ar
    36    17    18    1
    37    15    16    1
