@<TRIPOS>MOLECULE
2
 35 37 0 0 0
SMALL
GASTEIGER

@<TRIPOS>ATOM
      1 SI          9.2326    3.4980   12.0990 Si      1  UNL1        0.0000
      2 O           8.7781    3.2509   10.5732 O.3     1  UNL1        0.0000
      3 C          10.3767    5.0137   12.1892 C.ar    1  UNL1        0.0000
      4 C          10.2937    6.0092   11.2206 C.ar    1  UNL1        0.0000
      5 H           9.5718    5.9009   10.4253 H       1  UNL1        0.0000
      6 C          11.1156    7.1208   11.2576 C.ar    1  UNL1        0.0000
      7 H          11.0350    7.8745   10.4874 H       1  UNL1        0.0000
      8 C          12.0376    7.2604   12.2816 C.ar    1  UNL1        0.0000
      9 H          12.6829    8.1263   12.3181 H       1  UNL1        0.0000
     10 C          12.1324    6.2823   13.2588 C.ar    1  UNL1        0.0000
     11 H          12.8529    6.3866   14.0580 H       1  UNL1        0.0000
     12 C          11.3113    5.1695   13.2086 C.ar    1  UNL1        0.0000
     13 H          11.3999    4.4016   13.9637 H       1  UNL1        0.0000
     14 C           7.6993    3.8038   13.1805 C.ar    1  UNL1        0.0000
     15 C           7.7677    4.5420   14.3584 C.ar    1  UNL1        0.0000
     16 H           8.7154    4.9637   14.6613 H       1  UNL1        0.0000
     17 C           6.6413    4.7527   15.1342 C.ar    1  UNL1        0.0000
     18 H           6.7131    5.3291   16.0459 H       1  UNL1        0.0000
     19 C           5.4189    4.2322   14.7399 C.ar    1  UNL1        0.0000
     20 H           4.5384    4.4021   15.3428 H       1  UNL1        0.0000
     21 C           5.3311    3.4973   13.5693 C.ar    1  UNL1        0.0000
     22 H           4.3828    3.0897   13.2492 H       1  UNL1        0.0000
     23 C           6.4639    3.2847   12.8051 C.ar    1  UNL1        0.0000
     24 H           6.3972    2.7083   11.8947 H       1  UNL1        0.0000
     25 C          10.1643    1.9713   12.7434 C.ar    1  UNL1        0.0000
     26 C          10.2247    1.6659   14.0998 C.ar    1  UNL1        0.0000
     27 H           9.7156    2.3053   14.8067 H       1  UNL1        0.0000
     28 C          10.9132    0.5531   14.5500 C.ar    1  UNL1        0.0000
     29 H          10.9494    0.3311   15.6074 H       1  UNL1        0.0000
     30 C          11.5509   -0.2819   13.6462 C.ar    1  UNL1        0.0000
     31 H          12.0839   -1.1537   13.9977 H       1  UNL1        0.0000
     32 C          11.4985    0.0041   12.2921 C.ar    1  UNL1        0.0000
     33 H          11.9880   -0.6418   11.5771 H       1  UNL1        0.0000
     34 C          10.8148    1.1229   11.8526 C.ar    1  UNL1        0.0000
     35 H          10.7760    1.3491   10.7977 H       1  UNL1        0.0000
@<TRIPOS>BOND
     1     5     4    1
     2     7     6    1
     3     2     1    1
     4    35    34    1
     5     4     6   ar
     6     4     3   ar
     7     6     8   ar
     8    33    32    1
     9    34    32   ar
    10    34    25   ar
    11    24    23    1
    12     1     3    1
    13     1    25    1
    14     1    14    1
    15     3    12   ar
    16     8     9    1
    17     8    10   ar
    18    32    30   ar
    19    25    26   ar
    20    23    14   ar
    21    23    21   ar
    22    14    15   ar
    23    12    10   ar
    24    12    13    1
    25    22    21    1
    26    10    11    1
    27    21    19   ar
    28    30    31    1
    29    30    28   ar
    30    26    28   ar
    31    26    27    1
    32    15    16    1
    33    15    17   ar
    34    28    29    1
    35    19    17   ar
    36    19    20    1
    37    17    18    1
