@<TRIPOS>MOLECULE
2
 35 37 0 0 0
SMALL
GASTEIGER

@<TRIPOS>ATOM
      1 SI          5.6563    0.9074    9.6795 Si      1  UNL1        0.0000
      2 O           7.0415    1.6632    9.3201 O.3     1  UNL1        0.0000
      3 C           5.9765   -0.0772   11.2735 C.ar    1  UNL1        0.0000
      4 C           5.0126   -0.9219   11.8166 C.ar    1  UNL1        0.0000
      5 H           4.0565   -1.0135   11.3225 H       1  UNL1        0.0000
      6 C           5.2646   -1.6441   12.9689 C.ar    1  UNL1        0.0000
      7 H           4.5042   -2.2952   13.3761 H       1  UNL1        0.0000
      8 C           6.4927   -1.5343   13.6015 C.ar    1  UNL1        0.0000
      9 H           6.6902   -2.0989   14.5013 H       1  UNL1        0.0000
     10 C           7.4646   -0.6992   13.0767 C.ar    1  UNL1        0.0000
     11 H           8.4254   -0.6055   13.5613 H       1  UNL1        0.0000
     12 C           7.2042    0.0203   11.9246 C.ar    1  UNL1        0.0000
     13 H           7.9624    0.6763   11.5197 H       1  UNL1        0.0000
     14 C           5.1495   -0.2695    8.2734 C.ar    1  UNL1        0.0000
     15 C           4.5526    0.2314    7.1195 C.ar    1  UNL1        0.0000
     16 H           4.3422    1.2879    7.0486 H       1  UNL1        0.0000
     17 C           4.2265   -0.5992    6.0628 C.ar    1  UNL1        0.0000
     18 H           3.7772   -0.1821    5.1732 H       1  UNL1        0.0000
     19 C           4.4775   -1.9576    6.1469 C.ar    1  UNL1        0.0000
     20 H           4.2262   -2.6093    5.3229 H       1  UNL1        0.0000
     21 C           5.0518   -2.4774    7.2945 C.ar    1  UNL1        0.0000
     22 H           5.2432   -3.5384    7.3688 H       1  UNL1        0.0000
     23 C           5.3858   -1.6396    8.3433 C.ar    1  UNL1        0.0000
     24 H           5.8345   -2.0530    9.2354 H       1  UNL1        0.0000
     25 C           4.3254    2.2482    9.9103 C.ar    1  UNL1        0.0000
     26 C           4.6886    3.5927    9.9373 C.ar    1  UNL1        0.0000
     27 H           5.7333    3.8608    9.8194 H       1  UNL1        0.0000
     28 C           3.7458    4.5900   10.1126 C.ar    1  UNL1        0.0000
     29 H           4.0575    5.6245   10.1381 H       1  UNL1        0.0000
     30 C           2.4096    4.2558   10.2603 C.ar    1  UNL1        0.0000
     31 H           1.6684    5.0297   10.3994 H       1  UNL1        0.0000
     32 C           2.0266    2.9247   10.2261 C.ar    1  UNL1        0.0000
     33 H           0.9845    2.6605   10.3353 H       1  UNL1        0.0000
     34 C           2.9769    1.9342   10.0542 C.ar    1  UNL1        0.0000
     35 H           2.6733    0.8980   10.0251 H       1  UNL1        0.0000
@<TRIPOS>BOND
     1    18    17    1
     2    20    19    1
     3    17    19   ar
     4    17    15   ar
     5    19    21   ar
     6    16    15    1
     7    15    14   ar
     8    21    22    1
     9    21    23   ar
    10    14    23   ar
    11    14     1    1
    12    23    24    1
    13     2     1    1
    14     1    25    1
    15     1     3    1
    16    27    26    1
    17    25    26   ar
    18    25    34   ar
    19    26    28   ar
    20    35    34    1
    21    34    32   ar
    22    28    29    1
    23    28    30   ar
    24    32    30   ar
    25    32    33    1
    26    30    31    1
    27     3     4   ar
    28     3    12   ar
    29     5     4    1
    30    13    12    1
    31     4     6   ar
    32    12    10   ar
    33     6     7    1
    34     6     8   ar
    35    10    11    1
    36    10     8   ar
    37     8     9    1
