@<TRIPOS>MOLECULE
2
 35 37 0 0 0
SMALL
GASTEIGER

@<TRIPOS>ATOM
      1 SI         11.2891    1.6004    7.9162 Si      1  UNL1        0.0000
      2 O          10.0042    2.4922    8.3314 O.3     1  UNL1        0.0000
      3 C          10.8858   -0.2103    8.3420 C.ar    1  UNL1        0.0000
      4 C          11.7080   -1.2621    7.9479 C.ar    1  UNL1        0.0000
      5 H          12.5968   -1.0465    7.3733 H       1  UNL1        0.0000
      6 C          11.4005   -2.5710    8.2738 C.ar    1  UNL1        0.0000
      7 H          12.0513   -3.3736    7.9577 H       1  UNL1        0.0000
      8 C          10.2596   -2.8541    9.0071 C.ar    1  UNL1        0.0000
      9 H          10.0214   -3.8757    9.2663 H       1  UNL1        0.0000
     10 C           9.4245   -1.8224    9.4034 C.ar    1  UNL1        0.0000
     11 H           8.5317   -2.0298    9.9761 H       1  UNL1        0.0000
     12 C           9.7380   -0.5169    9.0692 C.ar    1  UNL1        0.0000
     13 H           9.0777    0.2861    9.3793 H       1  UNL1        0.0000
     14 C          11.6474    1.7609    6.0548 C.ar    1  UNL1        0.0000
     15 C          12.6462    2.6021    5.5723 C.ar    1  UNL1        0.0000
     16 H          13.2590    3.1502    6.2739 H       1  UNL1        0.0000
     17 C          12.8691    2.7422    4.2143 C.ar    1  UNL1        0.0000
     18 H          13.6500    3.4002    3.8602 H       1  UNL1        0.0000
     19 C          12.0897    2.0440    3.3076 C.ar    1  UNL1        0.0000
     20 H          12.2560    2.1603    2.2466 H       1  UNL1        0.0000
     21 C          11.0981    1.1958    3.7688 C.ar    1  UNL1        0.0000
     22 H          10.4848    0.6445    3.0709 H       1  UNL1        0.0000
     23 C          10.8872    1.0523    5.1281 C.ar    1  UNL1        0.0000
     24 H          10.1184    0.3799    5.4778 H       1  UNL1        0.0000
     25 C          12.7564    2.2675    8.9236 C.ar    1  UNL1        0.0000
     26 C          12.5679    3.2944    9.8457 C.ar    1  UNL1        0.0000
     27 H          11.5738    3.6949    9.9895 H       1  UNL1        0.0000
     28 C          13.6242    3.8016   10.5806 C.ar    1  UNL1        0.0000
     29 H          13.4503    4.5979   11.2892 H       1  UNL1        0.0000
     30 C          14.8967    3.2848   10.4044 C.ar    1  UNL1        0.0000
     31 H          15.7256    3.6763   10.9762 H       1  UNL1        0.0000
     32 C          15.1045    2.2630    9.4916 C.ar    1  UNL1        0.0000
     33 H          16.0967    1.8581    9.3514 H       1  UNL1        0.0000
     34 C          14.0431    1.7624    8.7599 C.ar    1  UNL1        0.0000
     35 H          14.2085    0.9696    8.0453 H       1  UNL1        0.0000
@<TRIPOS>BOND
     1    20    19    1
     2    22    21    1
     3    19    21   ar
     4    19    17   ar
     5    21    23   ar
     6    18    17    1
     7    17    15   ar
     8    23    24    1
     9    23    14   ar
    10    15    14   ar
    11    15    16    1
    12    14     1    1
    13     5     4    1
    14     1     2    1
    15     1     3    1
    16     1    25    1
    17     4     6   ar
    18     4     3   ar
    19     7     6    1
    20    35    34    1
    21     6     8   ar
    22     3    12   ar
    23    34    25   ar
    24    34    32   ar
    25    25    26   ar
    26     8     9    1
    27     8    10   ar
    28    12    13    1
    29    12    10   ar
    30    33    32    1
    31    10    11    1
    32    32    30   ar
    33    26    27    1
    34    26    28   ar
    35    30    28   ar
    36    30    31    1
    37    28    29    1
