@<TRIPOS>MOLECULE
2
 35 37 0 0 0
SMALL
GASTEIGER

@<TRIPOS>ATOM
      1 SI          7.6794    6.3160    8.2307 Si      1  UNL1        0.0000
      2 O           7.7113    4.7523    8.6462 O.3     1  UNL1        0.0000
      3 C           7.1380    7.2734    9.7810 C.ar    1  UNL1        0.0000
      4 C           6.9124    6.6011   10.9800 C.ar    1  UNL1        0.0000
      5 H           7.0666    5.5315   11.0193 H       1  UNL1        0.0000
      6 C           6.5039    7.2767   12.1156 C.ar    1  UNL1        0.0000
      7 H           6.3360    6.7310   13.0325 H       1  UNL1        0.0000
      8 C           6.3140    8.6477   12.0704 C.ar    1  UNL1        0.0000
      9 H           5.9955    9.1810   12.9544 H       1  UNL1        0.0000
     10 C           6.5335    9.3344   10.8870 C.ar    1  UNL1        0.0000
     11 H           6.3855   10.4043   10.8485 H       1  UNL1        0.0000
     12 C           6.9405    8.6510    9.7556 C.ar    1  UNL1        0.0000
     13 H           7.1056    9.1878    8.8330 H       1  UNL1        0.0000
     14 C           9.4325    6.7885    7.6599 C.ar    1  UNL1        0.0000
     15 C           9.7069    8.0132    7.0577 C.ar    1  UNL1        0.0000
     16 H           8.8997    8.7136    6.9012 H       1  UNL1        0.0000
     17 C          10.9888    8.3399    6.6529 C.ar    1  UNL1        0.0000
     18 H          11.1809    9.2952    6.1860 H       1  UNL1        0.0000
     19 C          12.0275    7.4437    6.8470 C.ar    1  UNL1        0.0000
     20 H          13.0300    7.7001    6.5356 H       1  UNL1        0.0000
     21 C          11.7745    6.2168    7.4383 C.ar    1  UNL1        0.0000
     22 H          12.5759    5.5090    7.5953 H       1  UNL1        0.0000
     23 C          10.4883    5.8971    7.8357 C.ar    1  UNL1        0.0000
     24 H          10.2963    4.9328    8.2944 H       1  UNL1        0.0000
     25 C           6.4436    6.6166    6.8160 C.ar    1  UNL1        0.0000
     26 C           5.1661    7.1156    7.0547 C.ar    1  UNL1        0.0000
     27 H           4.8802    7.3725    8.0649 H       1  UNL1        0.0000
     28 C           4.2626    7.2916    6.0222 C.ar    1  UNL1        0.0000
     29 H           3.2757    7.6808    6.2285 H       1  UNL1        0.0000
     30 C           4.6193    6.9650    4.7249 C.ar    1  UNL1        0.0000
     31 H           3.9111    7.0923    3.9191 H       1  UNL1        0.0000
     32 C           5.8881    6.4763    4.4669 C.ar    1  UNL1        0.0000
     33 H           6.1785    6.2197    3.4584 H       1  UNL1        0.0000
     34 C           6.7904    6.3127    5.5023 C.ar    1  UNL1        0.0000
     35 H           7.7814    5.9415    5.2889 H       1  UNL1        0.0000
@<TRIPOS>BOND
     1    33    32    1
     2    31    30    1
     3    32    30   ar
     4    32    34   ar
     5    30    28   ar
     6    35    34    1
     7    34    25   ar
     8    28    29    1
     9    28    26   ar
    10    18    17    1
    11    20    19    1
    12    17    19   ar
    13    17    15   ar
    14    25    26   ar
    15    25     1    1
    16    19    21   ar
    17    16    15    1
    18    26    27    1
    19    15    14   ar
    20    21    22    1
    21    21    23   ar
    22    14    23   ar
    23    14     1    1
    24    23    24    1
    25     1     2    1
    26     1     3    1
    27    13    12    1
    28    12     3   ar
    29    12    10   ar
    30     3     4   ar
    31    11    10    1
    32    10     8   ar
    33     4     5    1
    34     4     6   ar
    35     8     6   ar
    36     8     9    1
    37     6     7    1
