@<TRIPOS>MOLECULE
1
 13 13 0 0 0
SMALL
GASTEIGER

@<TRIPOS>ATOM
      1 O           5.8510    8.6455   11.4983 O.3     1  UNL1       -0.3798
      2 C           4.4443    8.8200   11.3655 C.3     1  UNL1        0.0477
      3 H           3.9760    7.8345   11.3540 H       1  UNL1        0.0560
      4 H           4.0666    9.4029   12.2187 H       1  UNL1        0.0560
      5 C           4.2692    9.5946   10.0622 C.3     1  UNL1       -0.0274
      6 H           3.3189   10.1209   10.0188 H       1  UNL1        0.0288
      7 H           4.3436    8.9146    9.2146 H       1  UNL1        0.0288
      8 C           5.4761   10.5387   10.0815 C.3     1  UNL1       -0.0274
      9 H           5.1924   11.5389   10.4054 H       1  UNL1        0.0288
     10 H           5.9370   10.6052    9.0985 H       1  UNL1        0.0288
     11 C           6.4324    9.8908   11.0991 C.3     1  UNL1        0.0477
     12 H           7.4058    9.6718   10.6616 H       1  UNL1        0.0560
     13 H           6.5554   10.5244   11.9876 H       1  UNL1        0.0560
@<TRIPOS>BOND
     1    10     8    1
     2     7     5    1
     3     6     5    1
     4     5     8    1
     5     5     2    1
     6     8     9    1
     7     8    11    1
     8    12    11    1
     9    11     1    1
    10    11    13    1
    11     3     2    1
    12     2     1    1
    13     2     4    1
