@<TRIPOS>MOLECULE
1
 13 13 0 0 0
SMALL
GASTEIGER

@<TRIPOS>ATOM
      1 O           5.1275    2.1997   15.6048 O.3     1  UNL1       -0.3798
      2 C           5.6372    1.5695   16.7761 C.3     1  UNL1        0.0477
      3 H           5.7939    2.3230   17.5600 H       1  UNL1        0.0560
      4 H           4.9003    0.8453   17.1237 H       1  UNL1        0.0560
      5 C           6.9795    0.9397   16.3723 C.3     1  UNL1       -0.0274
      6 H           7.7077    1.0272   17.1760 H       1  UNL1        0.0288
      7 H           6.8559   -0.1150   16.1350 H       1  UNL1        0.0288
      8 C           7.3879    1.7393   15.1244 C.3     1  UNL1       -0.0274
      9 H           7.4087    1.1010   14.2431 H       1  UNL1        0.0288
     10 H           8.3601    2.2145   15.2330 H       1  UNL1        0.0288
     11 C           6.2689    2.7793   14.9846 C.3     1  UNL1        0.0477
     12 H           6.5376    3.7086   15.5085 H       1  UNL1        0.0560
     13 H           6.0200    2.9993   13.9480 H       1  UNL1        0.0560
@<TRIPOS>BOND
     1    13    11    1
     2     9     8    1
     3    11     8    1
     4    11    12    1
     5    11     1    1
     6     8    10    1
     7     8     5    1
     8     1     2    1
     9     7     5    1
    10     5     2    1
    11     5     6    1
    12     2     4    1
    13     2     3    1
