@<TRIPOS>MOLECULE
13
 13 13 0 0 0
SMALL
GASTEIGER

@<TRIPOS>ATOM
      1 C          -2.8758    2.1158    7.4251 C.3     1  UNL1        0.0477
      2 H          -3.7755    2.5112    7.9207 H       1  UNL1        0.0560
      3 H          -2.8575    1.0255    7.5191 H       1  UNL1        0.0560
      4 C          -2.7792    2.6162    5.9750 C.3     1  UNL1       -0.0274
      5 H          -2.3900    1.8388    5.3201 H       1  UNL1        0.0288
      6 H          -3.7558    2.9213    5.6054 H       1  UNL1        0.0288
      7 C          -1.7971    3.7983    6.0553 C.3     1  UNL1       -0.0274
      8 H          -0.8650    3.5560    5.5458 H       1  UNL1        0.0288
      9 H          -2.2049    4.7088    5.6229 H       1  UNL1        0.0288
     10 C          -1.5482    3.9532    7.5582 C.3     1  UNL1        0.0477
     11 H          -0.5386    4.2951    7.8055 H       1  UNL1        0.0560
     12 H          -2.2923    4.6223    8.0176 H       1  UNL1        0.0560
     13 O          -1.7133    2.6324    8.0805 O.3     1  UNL1       -0.3798
@<TRIPOS>BOND
     1     5     4    1
     2     8     7    1
     3     6     4    1
     4     9     7    1
     5     4     7    1
     6     4     1    1
     7     7    10    1
     8     1     3    1
     9     1     2    1
    10     1    13    1
    11    10    11    1
    12    10    12    1
    13    10    13    1
