@<TRIPOS>MOLECULE
1
 14 13 0 0 0
SMALL
GASTEIGER

@<TRIPOS>ATOM
      1 O           5.9255    4.2626   15.4846 O.3     1  UNL1        0.0000
      2 SI          6.1261    4.4389   17.0394 Si      1  UNL1        0.0000
      3 C           7.8055    5.2501   17.5082 C.3     1  UNL1        0.0000
      4 H           7.7127    6.3261   17.6184 H       1  UNL1        0.0000
      5 H           8.5543    5.0753   16.7390 H       1  UNL1        0.0000
      6 H           8.1984    4.8607   18.4426 H       1  UNL1        0.0000
      7 C           4.7116    5.5061   17.7634 C.3     1  UNL1        0.0000
      8 H           3.7403    5.0593   17.5678 H       1  UNL1        0.0000
      9 H           4.7054    6.5098   17.3503 H       1  UNL1        0.0000
     10 H           4.8195    5.5957   18.8396 H       1  UNL1        0.0000
     11 C           6.0726    2.7746   18.0077 C.3     1  UNL1        0.0000
     12 H           6.5707    1.9666   17.4773 H       1  UNL1        0.0000
     13 H           5.0489    2.4632   18.1928 H       1  UNL1        0.0000
     14 H           6.5552    2.8723   18.9757 H       1  UNL1        0.0000
@<TRIPOS>BOND
     1     1     2    1
     2     5     3    1
     3     2     3    1
     4     2     7    1
     5     2    11    1
     6     9     7    1
     7    12    11    1
     8     3     4    1
     9     3     6    1
    10     8     7    1
    11     7    10    1
    12    11    13    1
    13    11    14    1
