@<TRIPOS>MOLECULE
1
 13 13 0 0 0
SMALL
GASTEIGER

@<TRIPOS>ATOM
      1 O           3.1755   16.7838    6.1261 O.3     1  UNL1       -0.3798
      2 C           4.5883   16.5594    6.2959 C.3     1  UNL1        0.0477
      3 C           5.1159   17.7568    7.0755 C.3     1  UNL1       -0.0274
      4 C           4.2408   18.8767    6.5207 C.3     1  UNL1       -0.0274
      5 C           2.8946   18.1736    6.3802 C.3     1  UNL1        0.0477
      6 H           5.0562   16.5035    5.3052 H       1  UNL1        0.0560
      7 H           4.7209   15.6021    6.8100 H       1  UNL1        0.0560
      8 H           6.1776   17.9199    6.9101 H       1  UNL1        0.0288
      9 H           4.9363   17.6272    8.1435 H       1  UNL1        0.0288
     10 H           4.1847   19.7432    7.1749 H       1  UNL1        0.0288
     11 H           4.6066   19.1916    5.5435 H       1  UNL1        0.0288
     12 H           2.3205   18.2383    7.3131 H       1  UNL1        0.0560
     13 H           2.2950   18.5648    5.5544 H       1  UNL1        0.0560
@<TRIPOS>BOND
     1     6     2    1
     2    11     4    1
     3    13     5    1
     4     1     2    1
     5     1     5    1
     6     2     7    1
     7     2     3    1
     8     5     4    1
     9     5    12    1
    10     4     3    1
    11     4    10    1
    12     8     3    1
    13     3     9    1
