@<TRIPOS>MOLECULE
6
 12 12 0 0 0
SMALL
GASTEIGER

@<TRIPOS>ATOM
      1 F           3.3349   14.5120   15.5453 F       1  UNL1       -0.1982
      2 F           3.7379   16.7687   17.0261 F       1  UNL1       -0.1992
      3 F           6.1996   17.9966   17.0463 F       1  UNL1       -0.1993
      4 F           8.2366   16.9228   15.5660 F       1  UNL1       -0.1992
      5 F           7.8430   14.6744   14.0920 F       1  UNL1       -0.1982
      6 O           5.3802   13.4709   14.0805 O.3     1  UNL1       -0.2816
      7 C           5.5728   14.5165   14.7646 C.ar    1  UNL1        0.2547
      8 C           4.5617   15.1225   15.5547 C.ar    1  UNL1        0.2107
      9 C           4.7529   16.2619   16.3068 C.ar    1  UNL1        0.2002
     10 C           5.9973   16.8838   16.3179 C.ar    1  UNL1        0.1993
     11 C           7.0310   16.3346   15.5623 C.ar    1  UNL1        0.2002
     12 C           6.8227   15.1931   14.8147 C.ar    1  UNL1        0.2107
@<TRIPOS>BOND
     1     6     7    1
     2     5    12    1
     3     7    12   ar
     4     7     8   ar
     5    12    11   ar
     6     1     8    1
     7     8     9   ar
     8    11     4    1
     9    11    10   ar
    10     9    10   ar
    11     9     2    1
    12    10     3    1
