@<TRIPOS>MOLECULE
1
 14 13 0 0 0
SMALL
GASTEIGER

@<TRIPOS>ATOM
      1 O           2.6423    2.1341    3.3030 O.3     1  UNL1        0.0000
      2 SI          3.9293    3.1052    3.3274 Si      1  UNL1        0.0000
      3 C           5.1684    2.4634    2.0153 C.3     1  UNL1        0.0000
      4 H           5.4836    1.4460    2.2313 H       1  UNL1        0.0000
      5 H           6.0580    3.0834    1.9838 H       1  UNL1        0.0000
      6 H           4.7299    2.4661    1.0208 H       1  UNL1        0.0000
      7 C           3.3936    4.8851    2.8859 C.3     1  UNL1        0.0000
      8 H           3.0849    4.9663    1.8474 H       1  UNL1        0.0000
      9 H           4.2138    5.5790    3.0380 H       1  UNL1        0.0000
     10 H           2.5635    5.2129    3.5048 H       1  UNL1        0.0000
     11 C           4.7399    3.0467    5.0563 C.3     1  UNL1        0.0000
     12 H           5.1851    2.0766    5.2593 H       1  UNL1        0.0000
     13 H           4.0153    3.2489    5.8396 H       1  UNL1        0.0000
     14 H           5.5268    3.7898    5.1338 H       1  UNL1        0.0000
@<TRIPOS>BOND
     1     6     3    1
     2     8     7    1
     3     5     3    1
     4     3     4    1
     5     3     2    1
     6     7     9    1
     7     7     2    1
     8     7    10    1
     9     1     2    1
    10     2    11    1
    11    11    14    1
    12    11    12    1
    13    11    13    1
