@<TRIPOS>MOLECULE
1
 13 13 0 0 0
SMALL
GASTEIGER

@<TRIPOS>ATOM
      1 O          -1.2198    2.8290    7.1215 O.3     1  UNL1       -0.3798
      2 C          -1.8861    1.5705    7.1112 C.3     1  UNL1        0.0477
      3 H          -1.1391    0.7824    7.0250 H       1  UNL1        0.0560
      4 H          -2.5732    1.5230    6.2571 H       1  UNL1        0.0560
      5 C          -2.6670    1.5322    8.4260 C.3     1  UNL1       -0.0274
      6 H          -3.5311    0.8746    8.3666 H       1  UNL1        0.0288
      7 H          -2.0210    1.1875    9.2316 H       1  UNL1        0.0288
      8 C          -3.0520    3.0036    8.6330 C.3     1  UNL1       -0.0274
      9 H          -2.8240    3.3321    9.6441 H       1  UNL1        0.0288
     10 H          -4.1121    3.1711    8.4512 H       1  UNL1        0.0288
     11 C          -2.1966    3.7552    7.5970 C.3     1  UNL1        0.0477
     12 H          -2.8090    4.0945    6.7536 H       1  UNL1        0.0560
     13 H          -1.6637    4.6091    8.0146 H       1  UNL1        0.0560
@<TRIPOS>BOND
     1     4     2    1
     2    12    11    1
     3     3     2    1
     4     2     1    1
     5     2     5    1
     6     1    11    1
     7    11    13    1
     8    11     8    1
     9     6     5    1
    10     5     8    1
    11     5     7    1
    12    10     8    1
    13     8     9    1
