@<TRIPOS>MOLECULE
2
 23 22 0 0 0
SMALL
GASTEIGER

@<TRIPOS>ATOM
      1 SI          1.3145   10.9861    6.6295 Si      1  UNL1        0.0000
      2 O           1.9521    9.7179    7.3681 O.3     1  UNL1        0.0000
      3 C           0.9929   10.4903    4.7795 C.3     1  UNL1        0.0000
      4 C           2.5533   12.4459    6.7322 C.3     1  UNL1        0.0000
      5 H           2.2561   13.1754    7.4787 H       1  UNL1        0.0000
      6 H           2.6850   12.9761    5.7949 H       1  UNL1        0.0000
      7 H           3.5130   12.0250    7.0339 H       1  UNL1        0.0000
      8 C          -0.3529   11.4618    7.4545 C.3     1  UNL1        0.0000
      9 H          -1.0908   10.6732    7.3454 H       1  UNL1        0.0000
     10 H          -0.7654   12.3626    7.0142 H       1  UNL1        0.0000
     11 H          -0.2210   11.6409    8.5164 H       1  UNL1        0.0000
     12 C           0.1978   11.5486    4.0160 C.3     1  UNL1        0.0000
     13 H           0.0636   11.2532    2.9746 H       1  UNL1        0.0000
     14 H           0.7129   12.5056    4.0351 H       1  UNL1        0.0000
     15 H          -0.7847   11.6846    4.4607 H       1  UNL1        0.0000
     16 C           0.2168    9.1725    4.7456 C.3     1  UNL1        0.0000
     17 H           0.1046    8.8100    3.7220 H       1  UNL1        0.0000
     18 H          -0.7763    9.2998    5.1710 H       1  UNL1        0.0000
     19 H           0.7427    8.4177    5.3271 H       1  UNL1        0.0000
     20 C           2.3414   10.2785    4.0877 C.3     1  UNL1        0.0000
     21 H           2.9790    9.6408    4.6997 H       1  UNL1        0.0000
     22 H           2.8507   11.2295    3.9498 H       1  UNL1        0.0000
     23 H           2.2076    9.8196    3.1060 H       1  UNL1        0.0000
@<TRIPOS>BOND
     1    13    12    1
     2    23    20    1
     3    17    16    1
     4    22    20    1
     5    12    14    1
     6    12    15    1
     7    12     3    1
     8    20    21    1
     9    20     3    1
    10    16     3    1
    11    16    18    1
    12    16    19    1
    13     3     1    1
    14     6     4    1
    15     1     4    1
    16     1     2    1
    17     1     8    1
    18     4     7    1
    19     4     5    1
    20    10     8    1
    21     9     8    1
    22     8    11    1
