@<TRIPOS>MOLECULE
2
 35 37 0 0 0
SMALL
GASTEIGER

@<TRIPOS>ATOM
      1 SI          8.7425    9.3684    3.3911 Si      1  UNL1        0.0000
      2 O           9.2059    8.4254    2.1928 O.3     1  UNL1        0.0000
      3 C          10.2811   10.0015    4.3275 C.ar    1  UNL1        0.0000
      4 C          11.4664   10.1228    3.6031 C.ar    1  UNL1        0.0000
      5 H          11.4653    9.8247    2.5593 H       1  UNL1        0.0000
      6 C          12.6173   10.6158    4.1936 C.ar    1  UNL1        0.0000
      7 H          13.5227   10.7135    3.6105 H       1  UNL1        0.0000
      8 C          12.6021   10.9959    5.5262 C.ar    1  UNL1        0.0000
      9 H          13.4969   11.3864    5.9902 H       1  UNL1        0.0000
     10 C          11.4354   10.8732    6.2623 C.ar    1  UNL1        0.0000
     11 H          11.4214   11.1637    7.3038 H       1  UNL1        0.0000
     12 C          10.2872   10.3809    5.6654 C.ar    1  UNL1        0.0000
     13 H           9.3824   10.2813    6.2482 H       1  UNL1        0.0000
     14 C           7.6747    8.3093    4.5605 C.ar    1  UNL1        0.0000
     15 C           6.8910    8.8515    5.5718 C.ar    1  UNL1        0.0000
     16 H           6.8493    9.9237    5.6913 H       1  UNL1        0.0000
     17 C           6.1529    8.0440    6.4194 C.ar    1  UNL1        0.0000
     18 H           5.5499    8.4864    7.2001 H       1  UNL1        0.0000
     19 C           6.1837    6.6680    6.2686 C.ar    1  UNL1        0.0000
     20 H           5.6095    6.0354    6.9306 H       1  UNL1        0.0000
     21 C           6.9514    6.1086    5.2607 C.ar    1  UNL1        0.0000
     22 H           6.9756    5.0347    5.1326 H       1  UNL1        0.0000
     23 C           7.6860    6.9251    4.4206 C.ar    1  UNL1        0.0000
     24 H           8.2827    6.4959    3.6278 H       1  UNL1        0.0000
     25 C           7.8017   10.8773    2.7104 C.ar    1  UNL1        0.0000
     26 C           7.3717   11.9395    3.4980 C.ar    1  UNL1        0.0000
     27 H           7.5540   11.9200    4.5631 H       1  UNL1        0.0000
     28 C           6.7281   13.0295    2.9398 C.ar    1  UNL1        0.0000
     29 H           6.3991   13.8454    3.5681 H       1  UNL1        0.0000
     30 C           6.5134   13.0802    1.5738 C.ar    1  UNL1        0.0000
     31 H           6.0192   13.9346    1.1339 H       1  UNL1        0.0000
     32 C           6.9425   12.0347    0.7736 C.ar    1  UNL1        0.0000
     33 H           6.7770   12.0785   -0.2943 H       1  UNL1        0.0000
     34 C           7.5774   10.9418    1.3371 C.ar    1  UNL1        0.0000
     35 H           7.9176   10.1157    0.7176 H       1  UNL1        0.0000
@<TRIPOS>BOND
     1    33    32    1
     2    35    34    1
     3    32    34   ar
     4    32    30   ar
     5    31    30    1
     6    34    25   ar
     7    30    28   ar
     8     2     1    1
     9     5     4    1
    10    25     1    1
    11    25    26   ar
    12    28    26   ar
    13    28    29    1
    14     1     3    1
    15     1    14    1
    16    26    27    1
    17     4     6   ar
    18     4     3   ar
    19     7     6    1
    20    24    23    1
    21     6     8   ar
    22     3    12   ar
    23    23    14   ar
    24    23    21   ar
    25    14    15   ar
    26    22    21    1
    27    21    19   ar
    28     8     9    1
    29     8    10   ar
    30    15    16    1
    31    15    17   ar
    32    12    13    1
    33    12    10   ar
    34    10    11    1
    35    19    17   ar
    36    19    20    1
    37    17    18    1
