@<TRIPOS>MOLECULE
2
 44 43 0 0 0
SMALL
GASTEIGER

@<TRIPOS>ATOM
      1 SI          1.7670   -0.9336    4.9375 Si      1  UNL1        0.0000
      2 O           2.2710    0.5678    4.7831 O.3     1  UNL1        0.0000
      3 O           1.0258   -1.4564    3.5622 O.3     1  UNL1        0.0000
      4 O           0.7530   -0.9574    6.2271 O.3     1  UNL1        0.0000
      5 O           2.9162   -2.0333    5.3001 O.3     1  UNL1        0.0000
      6 C           0.2702   -0.6791    2.6458 C.3     1  UNL1        0.0000
      7 C           1.2180    0.2006    1.8265 C.3     1  UNL1        0.0000
      8 H           1.7769    0.8417    2.5110 H       1  UNL1        0.0000
      9 H           0.6540    0.8081    1.1236 H       1  UNL1        0.0000
     10 H           1.9183   -0.4205    1.2725 H       1  UNL1        0.0000
     11 C          -0.7305    0.2086    3.3872 C.3     1  UNL1        0.0000
     12 H          -1.3802   -0.4028    4.0083 H       1  UNL1        0.0000
     13 H          -1.3361    0.7711    2.6813 H       1  UNL1        0.0000
     14 H          -0.1828    0.8975    4.0275 H       1  UNL1        0.0000
     15 C          -0.4627   -1.6741    1.7383 C.3     1  UNL1        0.0000
     16 H           0.2568   -2.3161    1.2372 H       1  UNL1        0.0000
     17 H          -1.0474   -1.1443    0.9911 H       1  UNL1        0.0000
     18 H          -1.1243   -2.3003    2.3309 H       1  UNL1        0.0000
     19 C           0.1132   -2.0603    6.8466 C.3     1  UNL1        0.0000
     20 C          -0.4204   -3.0501    5.8113 C.3     1  UNL1        0.0000
     21 H          -1.1012   -2.5451    5.1327 H       1  UNL1        0.0000
     22 H          -0.9446   -3.8659    6.3032 H       1  UNL1        0.0000
     23 H           0.4064   -3.4435    5.2301 H       1  UNL1        0.0000
     24 C          -1.0499   -1.4851    7.6640 C.3     1  UNL1        0.0000
     25 H          -0.6717   -0.7699    8.3888 H       1  UNL1        0.0000
     26 H          -1.5745   -2.2808    8.1867 H       1  UNL1        0.0000
     27 H          -1.7463   -0.9723    7.0056 H       1  UNL1        0.0000
     28 C           1.1095   -2.7729    7.7650 C.3     1  UNL1        0.0000
     29 H           1.9754   -3.0563    7.1759 H       1  UNL1        0.0000
     30 H           0.6567   -3.6564    8.2078 H       1  UNL1        0.0000
     31 H           1.4354   -2.1016    8.5546 H       1  UNL1        0.0000
     32 C           4.0273   -2.4822    4.5426 C.3     1  UNL1        0.0000
     33 C           3.6080   -3.7582    3.8037 C.3     1  UNL1        0.0000
     34 H           3.3367   -4.5328    4.5172 H       1  UNL1        0.0000
     35 H           4.4168   -4.1207    3.1746 H       1  UNL1        0.0000
     36 H           2.7403   -3.5353    3.1892 H       1  UNL1        0.0000
     37 C           5.1461   -2.7788    5.5473 C.3     1  UNL1        0.0000
     38 H           5.4549   -1.8505    6.0198 H       1  UNL1        0.0000
     39 H           5.9987   -3.2283    5.0448 H       1  UNL1        0.0000
     40 H           4.7863   -3.4592    6.3154 H       1  UNL1        0.0000
     41 C           4.4902   -1.4212    3.5478 C.3     1  UNL1        0.0000
     42 H           3.7336   -1.2901    2.7805 H       1  UNL1        0.0000
     43 H           5.4270   -1.7207    3.0832 H       1  UNL1        0.0000
     44 H           4.6184   -0.4701    4.0666 H       1  UNL1        0.0000
@<TRIPOS>BOND
     1    17    15    1
     2     9     7    1
     3    16    15    1
     4    10     7    1
     5    15    18    1
     6    15     6    1
     7     7     8    1
     8     7     6    1
     9     6    11    1
    10     6     3    1
    11    13    11    1
    12    42    41    1
    13    43    41    1
    14    35    33    1
    15    36    33    1
    16    11    12    1
    17    11    14    1
    18    41    44    1
    19    41    32    1
    20     3     1    1
    21    33    34    1
    22    33    32    1
    23    32     5    1
    24    32    37    1
    25     2     1    1
    26     1     5    1
    27     1     4    1
    28    39    37    1
    29    21    20    1
    30    23    20    1
    31    37    38    1
    32    37    40    1
    33    20    22    1
    34    20    19    1
    35     4    19    1
    36    19    24    1
    37    19    28    1
    38    27    24    1
    39    29    28    1
    40    24    26    1
    41    24    25    1
    42    28    30    1
    43    28    31    1
