@<TRIPOS>MOLECULE
2
 35 37 0 0 0
SMALL
GASTEIGER

@<TRIPOS>ATOM
      1 SI         11.1094   11.4131   -0.2052 Si      1  UNL1        0.0000
      2 O          10.5142   10.0542    0.3651 O.3     1  UNL1        0.0000
      3 C          10.3163   12.9588    0.5753 C.ar    1  UNL1        0.0000
      4 C          10.2591   13.0921    1.9594 C.ar    1  UNL1        0.0000
      5 H          10.6430   12.2960    2.5803 H       1  UNL1        0.0000
      6 C           9.7187   14.2201    2.5486 C.ar    1  UNL1        0.0000
      7 H           9.6858   14.3007    3.6258 H       1  UNL1        0.0000
      8 C           9.2219   15.2440    1.7604 C.ar    1  UNL1        0.0000
      9 H           8.7985   16.1272    2.2176 H       1  UNL1        0.0000
     10 C           9.2703   15.1300    0.3820 C.ar    1  UNL1        0.0000
     11 H           8.8846   15.9260   -0.2402 H       1  UNL1        0.0000
     12 C           9.8154   13.9994   -0.2000 C.ar    1  UNL1        0.0000
     13 H           9.8548   13.9209   -1.2777 H       1  UNL1        0.0000
     14 C          10.7978   11.4654   -2.0911 C.ar    1  UNL1        0.0000
     15 C           9.4889   11.3738   -2.5558 C.ar    1  UNL1        0.0000
     16 H           8.6902   11.2934   -1.8311 H       1  UNL1        0.0000
     17 C           9.2015   11.3938   -3.9089 C.ar    1  UNL1        0.0000
     18 H           8.1768   11.3287   -4.2497 H       1  UNL1        0.0000
     19 C          10.2283   11.5073   -4.8321 C.ar    1  UNL1        0.0000
     20 H          10.0084   11.5301   -5.8903 H       1  UNL1        0.0000
     21 C          11.5368   11.5964   -4.3901 C.ar    1  UNL1        0.0000
     22 H          12.3427   11.6898   -5.1051 H       1  UNL1        0.0000
     23 C          11.8137   11.5746   -3.0335 C.ar    1  UNL1        0.0000
     24 H          12.8378   11.6511   -2.6959 H       1  UNL1        0.0000
     25 C          12.9875   11.5145    0.0987 C.ar    1  UNL1        0.0000
     26 C          13.7129   12.6763   -0.1470 C.ar    1  UNL1        0.0000
     27 H          13.1973   13.5463   -0.5293 H       1  UNL1        0.0000
     28 C          15.0738   12.7362    0.0960 C.ar    1  UNL1        0.0000
     29 H          15.6199   13.6486   -0.1001 H       1  UNL1        0.0000
     30 C          15.7371   11.6281    0.5963 C.ar    1  UNL1        0.0000
     31 H          16.7998   11.6735    0.7901 H       1  UNL1        0.0000
     32 C          15.0301   10.4647    0.8523 C.ar    1  UNL1        0.0000
     33 H          15.5435    9.5991    1.2491 H       1  UNL1        0.0000
     34 C          13.6691   10.4113    0.6050 C.ar    1  UNL1        0.0000
     35 H          13.1076    9.5089    0.8130 H       1  UNL1        0.0000
@<TRIPOS>BOND
     1    20    19    1
     2    22    21    1
     3    19    21   ar
     4    19    17   ar
     5    21    23   ar
     6    18    17    1
     7    17    15   ar
     8    23    24    1
     9    23    14   ar
    10    15    14   ar
    11    15    16    1
    12    14     1    1
    13    13    12    1
    14    27    26    1
    15    11    10    1
    16     1    25    1
    17     1     2    1
    18     1     3    1
    19    12    10   ar
    20    12     3   ar
    21    26    28   ar
    22    26    25   ar
    23    29    28    1
    24    28    30   ar
    25    25    34   ar
    26    10     8   ar
    27     3     4   ar
    28    30    31    1
    29    30    32   ar
    30    34    35    1
    31    34    32   ar
    32    32    33    1
    33     8     9    1
    34     8     6   ar
    35     4     6   ar
    36     4     5    1
    37     6     7    1
