@<TRIPOS>MOLECULE
2
 44 43 0 0 0
SMALL
GASTEIGER

@<TRIPOS>ATOM
      1 SI          3.5510    4.3610    2.9328 Si      1  UNL1        0.0000
      2 O           3.2114    3.1101    3.8553 O.3     1  UNL1        0.0000
      3 O           4.5478    4.0301    1.6758 O.3     1  UNL1        0.0000
      4 O           2.1947    5.0232    2.2850 O.3     1  UNL1        0.0000
      5 C           5.0929    6.5915    3.4232 C.3     1  UNL1        0.0000
      6 C           5.0813    7.5893    4.5870 C.3     1  UNL1        0.0000
      7 H           4.0560    7.8415    4.8442 H       1  UNL1        0.0000
      8 H           5.6123    8.4965    4.3099 H       1  UNL1        0.0000
      9 H           5.5554    7.1504    5.4597 H       1  UNL1        0.0000
     10 C           6.5272    6.1643    3.0985 C.3     1  UNL1        0.0000
     11 H           6.9878    5.7212    3.9779 H       1  UNL1        0.0000
     12 H           7.1182    7.0163    2.7723 H       1  UNL1        0.0000
     13 H           6.4915    5.4197    2.3096 H       1  UNL1        0.0000
     14 C           4.4562    7.2325    2.1915 C.3     1  UNL1        0.0000
     15 H           4.4677    6.5221    1.3726 H       1  UNL1        0.0000
     16 H           5.0000    8.1302    1.9075 H       1  UNL1        0.0000
     17 H           3.4223    7.4873    2.4020 H       1  UNL1        0.0000
     18 C           4.5159    2.9374    0.7711 C.3     1  UNL1        0.0000
     19 C           5.5869    3.2262   -0.2884 C.3     1  UNL1        0.0000
     20 H           6.5559    3.3532    0.1875 H       1  UNL1        0.0000
     21 H           5.3434    4.1415   -0.8215 H       1  UNL1        0.0000
     22 H           5.6454    2.4053   -0.9978 H       1  UNL1        0.0000
     23 C           0.9218    5.1503    2.9001 C.3     1  UNL1        0.0000
     24 C           0.1201    6.1182    2.0211 C.3     1  UNL1        0.0000
     25 H           0.6014    7.0926    2.0058 H       1  UNL1        0.0000
     26 H          -0.8919    6.2272    2.4016 H       1  UNL1        0.0000
     27 H           0.0798    5.7409    1.0030 H       1  UNL1        0.0000
     28 C           0.2421    3.7794    2.9536 C.3     1  UNL1        0.0000
     29 H           0.1426    3.3752    1.9490 H       1  UNL1        0.0000
     30 H          -0.7440    3.8648    3.4033 H       1  UNL1        0.0000
     31 H           0.8609    3.1090    3.5559 H       1  UNL1        0.0000
     32 C           1.0612    5.6974    4.3211 C.3     1  UNL1        0.0000
     33 H           1.5470    4.9434    4.9405 H       1  UNL1        0.0000
     34 H           0.0824    5.9341    4.7322 H       1  UNL1        0.0000
     35 H           1.6741    6.5952    4.3125 H       1  UNL1        0.0000
     36 O           4.3708    5.4473    3.8493 O.3     1  UNL1        0.0000
     37 C           3.1402    2.8376    0.1150 C.3     1  UNL1        0.0000
     38 H           3.1344    2.0622   -0.6467 H       1  UNL1        0.0000
     39 H           2.8830    3.7923   -0.3359 H       1  UNL1        0.0000
     40 H           2.4037    2.6078    0.8772 H       1  UNL1        0.0000
     41 C           4.8402    1.6402    1.5192 C.3     1  UNL1        0.0000
     42 H           4.1940    1.5542    2.3956 H       1  UNL1        0.0000
     43 H           5.8747    1.6520    1.8558 H       1  UNL1        0.0000
     44 H           4.6928    0.7816    0.8694 H       1  UNL1        0.0000
@<TRIPOS>BOND
     1    22    19    1
     2    21    19    1
     3    38    37    1
     4    39    37    1
     5    19    20    1
     6    19    18    1
     7    37    18    1
     8    37    40    1
     9    18    41    1
    10    18     3    1
    11    44    41    1
    12    27    24    1
    13    15    14    1
    14    41    43    1
    15    41    42    1
    16     3     1    1
    17    16    14    1
    18    29    28    1
    19    25    24    1
    20    24    26    1
    21    24    23    1
    22    14    17    1
    23    14     5    1
    24     4    23    1
    25     4     1    1
    26    13    10    1
    27    12    10    1
    28    23    28    1
    29    23    32    1
    30     1    36    1
    31     1     2    1
    32    28    30    1
    33    28    31    1
    34    10     5    1
    35    10    11    1
    36     5    36    1
    37     5     6    1
    38     8     6    1
    39    35    32    1
    40    32    34    1
    41    32    33    1
    42     6     7    1
    43     6     9    1
