@<TRIPOS>MOLECULE
1
 23 22 0 0 0
SMALL
GASTEIGER

@<TRIPOS>ATOM
      1 O           4.2746   10.3255    8.8474 O.3     1  UNL1        0.0000
      2 SI          4.6266   11.2006   10.1329 Si      1  UNL1        0.0000
      3 C           3.1892   10.9903   11.4121 C.3     1  UNL1        0.0000
      4 C           1.8700   11.1178   10.6463 C.3     1  UNL1        0.0000
      5 H           1.8601   10.4124    9.8090 H       1  UNL1        0.0000
      6 H           1.7541   12.1239   10.2469 H       1  UNL1        0.0000
      7 H           1.0214   10.9098   11.3007 H       1  UNL1        0.0000
      8 C           4.8565   13.0502    9.6727 C.3     1  UNL1        0.0000
      9 H           5.5100   13.1534    8.8115 H       1  UNL1        0.0000
     10 H           5.3013   13.6064   10.4908 H       1  UNL1        0.0000
     11 H           3.9135   13.5246    9.4227 H       1  UNL1        0.0000
     12 C           3.2498    9.5878   12.0208 C.3     1  UNL1        0.0000
     13 H           2.4040    9.4240   12.6910 H       1  UNL1        0.0000
     14 H           4.1656    9.4510   12.5925 H       1  UNL1        0.0000
     15 H           3.2152    8.8460   11.2230 H       1  UNL1        0.0000
     16 C           6.2945   10.6130   10.8930 C.3     1  UNL1        0.0000
     17 H           6.2751    9.5511   11.1191 H       1  UNL1        0.0000
     18 H           6.5287   11.1453   11.8083 H       1  UNL1        0.0000
     19 H           7.1119   10.7843   10.1981 H       1  UNL1        0.0000
     20 C           3.2271   12.0260   12.5366 C.3     1  UNL1        0.0000
     21 H           3.1583   13.0342   12.1358 H       1  UNL1        0.0000
     22 H           4.1543   11.9472   13.0999 H       1  UNL1        0.0000
     23 H           2.3958   11.8753   13.2263 H       1  UNL1        0.0000
@<TRIPOS>BOND
     1     9     8    1
     2     1     2    1
     3    11     8    1
     4     8     2    1
     5     8    10    1
     6     5     4    1
     7     2    16    1
     8     2     3    1
     9    19    16    1
    10     6     4    1
    11     4     7    1
    12     4     3    1
    13    16    17    1
    14    16    18    1
    15    15    12    1
    16     3    12    1
    17     3    20    1
    18    12    14    1
    19    12    13    1
    20    21    20    1
    21    20    22    1
    22    20    23    1
