@<TRIPOS>MOLECULE
1
 13 13 0 0 0
SMALL
GASTEIGER

@<TRIPOS>ATOM
      1 O           5.0217    9.7116    4.3269 O.3     1  UNL1       -0.3798
      2 C           4.7552    9.6457    5.7274 C.3     1  UNL1        0.0477
      3 H           4.1346    8.7635    5.9344 H       1  UNL1        0.0560
      4 H           4.2117   10.5469    6.0092 H       1  UNL1        0.0560
      5 C           6.1493    8.8620    4.1310 C.3     1  UNL1        0.0477
      6 H           6.5688    9.0721    3.1483 H       1  UNL1        0.0560
      7 H           5.8270    7.8117    4.1753 H       1  UNL1        0.0560
      8 C           6.1180    9.5265    6.4330 C.3     1  UNL1       -0.0274
      9 H           6.0916    8.7478    7.1928 H       1  UNL1        0.0288
     10 H           6.3914   10.4656    6.9091 H       1  UNL1        0.0288
     11 C           7.0892    9.1808    5.2947 C.3     1  UNL1       -0.0274
     12 H           7.7059   10.0434    5.0501 H       1  UNL1        0.0288
     13 H           7.7374    8.3414    5.5342 H       1  UNL1        0.0288
@<TRIPOS>BOND
     1     6     5    1
     2     5     7    1
     3     5     1    1
     4     5    11    1
     5     1     2    1
     6    12    11    1
     7    11    13    1
     8    11     8    1
     9     2     3    1
    10     2     4    1
    11     2     8    1
    12     8    10    1
    13     8     9    1
