@<TRIPOS>MOLECULE
1
 13 13 0 0 0
SMALL
GASTEIGER

@<TRIPOS>ATOM
      1 O           4.6889    7.8733    3.0276 O.3     1  UNL1       -0.3798
      2 C           5.5011    7.0717    3.8813 C.3     1  UNL1        0.0477
      3 C           4.5956    5.9492    4.4202 C.3     1  UNL1       -0.0274
      4 C           3.1753    6.4364    4.0901 C.3     1  UNL1       -0.0274
      5 C           3.4062    7.8833    3.6455 C.3     1  UNL1        0.0477
      6 H           5.8707    7.6882    4.7127 H       1  UNL1        0.0560
      7 H           6.3475    6.7083    3.2982 H       1  UNL1        0.0560
      8 H           4.8120    5.0032    3.9295 H       1  UNL1        0.0288
      9 H           4.7400    5.8196    5.4909 H       1  UNL1        0.0288
     10 H           2.5014    6.3757    4.9411 H       1  UNL1        0.0288
     11 H           2.7532    5.8584    3.2687 H       1  UNL1        0.0288
     12 H           2.6789    8.2442    2.9166 H       1  UNL1        0.0560
     13 H           3.4237    8.5563    4.5141 H       1  UNL1        0.0560
@<TRIPOS>BOND
     1    12     5    1
     2     1     5    1
     3     1     2    1
     4    11     4    1
     5     7     2    1
     6     5     4    1
     7     5    13    1
     8     2     3    1
     9     2     6    1
    10     8     3    1
    11     4     3    1
    12     4    10    1
    13     3     9    1
