@<TRIPOS>MOLECULE
5
 5 4 0 0 0
SMALL
GASTEIGER

@<TRIPOS>ATOM
      1 C           5.2290    8.0328   18.2876 C.3     1  UNL1        0.0718
      2 H           5.0503    8.8148   17.5280 H       1  UNL1        0.0555
      3 H           4.2547    7.7494   18.7162 H       1  UNL1        0.0555
      4 H           5.6402    7.1437   17.7795 H       1  UNL1        0.0555
      5 O           6.0789    8.4712   19.2908 O.3     1  UNL1       -0.2383
@<TRIPOS>BOND
     1     2     1    1
     2     4     1    1
     3     1     3    1
     4     1     5    1
