@<TRIPOS>MOLECULE
2
 44 46 0 0 0
SMALL
GASTEIGER

@<TRIPOS>ATOM
      1 P          -0.4761   16.2083    6.4775 P.3     1  UNL1        0.1104
      2 O           0.0112   15.2439    7.4912 O.3     1  UNL1       -0.2025
      3 C           0.0605   15.7288    4.8125 C.ar    1  UNL1        0.0078
      4 C           1.1944   16.2750    4.2298 C.ar    1  UNL1       -0.0515
      5 H           1.7195   17.0783    4.7293 H       1  UNL1        0.0625
      6 C           1.6434   15.7879    3.0161 C.ar    1  UNL1       -0.0582
      7 H           2.5287   16.2130    2.5651 H       1  UNL1        0.0620
      8 C           0.9760   14.7523    2.3727 C.ar    1  UNL1       -0.0504
      9 C          -0.1559   14.2081    2.9719 C.ar    1  UNL1       -0.0582
     10 H          -0.6807   13.4006    2.4823 H       1  UNL1        0.0620
     11 C          -0.6084   14.6846    4.1855 C.ar    1  UNL1       -0.0515
     12 H          -1.4819   14.2540    4.6587 H       1  UNL1        0.0625
     13 C           1.4791   14.2058    1.0736 C.3     1  UNL1       -0.0397
     14 H           0.6523   13.9250    0.4246 H       1  UNL1        0.0278
     15 H           2.0765   13.3135    1.2623 H       1  UNL1        0.0278
     16 H           2.1042   14.9316    0.5593 H       1  UNL1        0.0278
     17 C          -2.2884   16.2571    6.4652 C.ar    1  UNL1        0.0078
     18 C          -3.0182   16.7504    5.3916 C.ar    1  UNL1       -0.0515
     19 H          -2.5051   17.1252    4.5166 H       1  UNL1        0.0625
     20 C          -4.3988   16.7377    5.4386 C.ar    1  UNL1       -0.0582
     21 H          -4.9650   17.1175    4.5996 H       1  UNL1        0.0620
     22 C          -5.0719   16.2327    6.5468 C.ar    1  UNL1       -0.0504
     23 C          -4.3305   15.7427    7.6166 C.ar    1  UNL1       -0.0582
     24 H          -4.8368   15.3390    8.4811 H       1  UNL1        0.0620
     25 C          -2.9503   15.7584    7.5797 C.ar    1  UNL1       -0.0515
     26 H          -2.3748   15.3655    8.4067 H       1  UNL1        0.0625
     27 C          -6.5680   16.1861    6.5783 C.3     1  UNL1       -0.0397
     28 H          -6.9971   16.9087    5.8883 H       1  UNL1        0.0278
     29 H          -6.9393   16.3871    7.5806 H       1  UNL1        0.0278
     30 H          -6.9120   15.1930    6.2877 H       1  UNL1        0.0278
     31 C           0.1607   17.8640    6.8415 C.ar    1  UNL1        0.0078
     32 C          -0.1824   18.9690    6.0741 C.ar    1  UNL1       -0.0515
     33 H          -0.8421   18.8513    5.2261 H       1  UNL1        0.0625
     34 C           0.3265   20.2121    6.3976 C.ar    1  UNL1       -0.0582
     35 H           0.0593   21.0709    5.7980 H       1  UNL1        0.0620
     36 C           1.1795   20.3732    7.4848 C.ar    1  UNL1       -0.0504
     37 C           1.5147   19.2582    8.2468 C.ar    1  UNL1       -0.0582
     38 H           2.1773   19.3669    9.0933 H       1  UNL1        0.0620
     39 C           1.0091   18.0127    7.9314 C.ar    1  UNL1       -0.0515
     40 H           1.2725   17.1469    8.5237 H       1  UNL1        0.0625
     41 C           1.7253   21.7203    7.8443 C.3     1  UNL1       -0.0397
     42 H           1.4894   22.4564    7.0800 H       1  UNL1        0.0278
     43 H           2.8060   21.6732    7.9669 H       1  UNL1        0.0278
     44 H           1.2992   22.0551    8.7898 H       1  UNL1        0.0278
@<TRIPOS>BOND
     1    14    13    1
     2    16    13    1
     3    13    15    1
     4    13     8    1
     5     8     9   ar
     6     8     6   ar
     7    10     9    1
     8     7     6    1
     9     9    11   ar
    10     6     4   ar
    11    11    12    1
    12    11     3   ar
    13     4     5    1
    14     4     3   ar
    15    19    18    1
    16    21    20    1
    17     3     1    1
    18    33    32    1
    19    18    20   ar
    20    18    17   ar
    21    20    22   ar
    22    35    34    1
    23    28    27    1
    24    32    34   ar
    25    32    31   ar
    26    30    27    1
    27    34    36   ar
    28    17     1    1
    29    17    25   ar
    30     1    31    1
    31     1     2    1
    32    22    27    1
    33    22    23   ar
    34    27    29    1
    35    31    39   ar
    36    42    41    1
    37    36    41    1
    38    36    37   ar
    39    25    23   ar
    40    25    26    1
    41    23    24    1
    42    41    43    1
    43    41    44    1
    44    39    37   ar
    45    39    40    1
    46    37    38    1
