@<TRIPOS>MOLECULE
1
 5 4 0 0 0
SMALL
GASTEIGER

@<TRIPOS>ATOM
      1 O          11.4505   11.6405    5.4278 O.3     1  UNL1       -0.2383
      2 C          12.2180   11.1713    6.4490 C.3     1  UNL1        0.0718
      3 H          11.5934   10.9383    7.3245 H       1  UNL1        0.0555
      4 H          12.9701   11.9207    6.7385 H       1  UNL1        0.0555
      5 H          12.7357   10.2541    6.1246 H       1  UNL1        0.0555
@<TRIPOS>BOND
     1     1     2    1
     2     5     2    1
     3     2     4    1
     4     2     3    1
