@<TRIPOS>MOLECULE
1
 8 7 0 0 0
SMALL
GASTEIGER

@<TRIPOS>ATOM
      1 O          -0.1886    4.2127    8.7343 O.3     1  UNL1       -0.2350
      2 C          -0.7629    3.9226    7.5183 C.3     1  UNL1        0.0801
      3 H          -0.4300    4.6469    6.7475 H       1  UNL1        0.0589
      4 H          -1.8646    4.0138    7.5988 H       1  UNL1        0.0589
      5 C          -0.4279    2.5122    7.0220 C.3     1  UNL1       -0.0386
      6 H          -0.9201    2.3211    6.0714 H       1  UNL1        0.0253
      7 H          -0.7629    1.7775    7.7510 H       1  UNL1        0.0253
      8 H           0.6483    2.4170    6.8945 H       1  UNL1        0.0253
@<TRIPOS>BOND
     1     6     5    1
     2     3     2    1
     3     8     5    1
     4     5     2    1
     5     5     7    1
     6     2     4    1
     7     2     1    1
