@<TRIPOS>MOLECULE
13
 13 13 0 0 0
SMALL
GASTEIGER

@<TRIPOS>ATOM
      1 C           5.9528    3.2332    3.8486 C.3     1  UNL1        0.0477
      2 H           6.7183    3.2461    3.0685 H       1  UNL1        0.0560
      3 H           6.3781    3.5847    4.8004 H       1  UNL1        0.0560
      4 C           4.7240    4.0450    3.4583 C.3     1  UNL1       -0.0274
      5 H           4.8324    5.1006    3.6944 H       1  UNL1        0.0288
      6 H           4.5363    3.9198    2.3915 H       1  UNL1        0.0288
      7 C           3.6408    3.3449    4.2683 C.3     1  UNL1       -0.0274
      8 H           2.6372    3.5233    3.8914 H       1  UNL1        0.0288
      9 H           3.6872    3.6472    5.3160 H       1  UNL1        0.0288
     10 C           4.0611    1.8879    4.1034 C.3     1  UNL1        0.0477
     11 H           3.7538    1.2557    4.9420 H       1  UNL1        0.0560
     12 H           3.6651    1.4850    3.1609 H       1  UNL1        0.0560
     13 O           5.5028    1.8734    4.0306 O.3     1  UNL1       -0.3798
@<TRIPOS>BOND
     1     6     4    1
     2     2     1    1
     3    12    10    1
     4     4     5    1
     5     4     1    1
     6     4     7    1
     7     1    13    1
     8     1     3    1
     9     8     7    1
    10    13    10    1
    11    10     7    1
    12    10    11    1
    13     7     9    1
