@<TRIPOS>MOLECULE
1
 7 6 0 0 0
SMALL
GASTEIGER

@<TRIPOS>ATOM
      1 O           3.2828    5.1949    2.2315 O.co2   1  UNL1       -0.2467
      2 C           3.6601    5.9482    3.1905 C.2     1  UNL1        0.3530
      3 O           4.0450    7.1048    3.0749 O.co2   1  UNL1       -0.2467
      4 C           3.5842    5.2766    4.5617 C.3     1  UNL1        0.0375
      5 H           4.1657    5.8457    5.2803 H       1  UNL1        0.0343
      6 H           3.9498    4.2568    4.4901 H       1  UNL1        0.0343
      7 H           2.5423    5.2538    4.8722 H       1  UNL1        0.0343
@<TRIPOS>BOND
     1     1     2   ar
     2     3     2   ar
     3     2     4    1
     4     6     4    1
     5     4     7    1
     6     4     5    1
