@<TRIPOS>MOLECULE
1
 13 13 0 0 0
SMALL
GASTEIGER

@<TRIPOS>ATOM
      1 O          -1.8429   -1.9834   -3.2840 O.3     1  UNL1       -0.3798
      2 C          -2.1307   -1.3078   -2.0459 C.3     1  UNL1        0.0477
      3 H          -2.7959   -0.4624   -2.2619 H       1  UNL1        0.0560
      4 H          -1.1913   -0.9385   -1.6289 H       1  UNL1        0.0560
      5 C          -2.8261   -2.3183   -1.1385 C.3     1  UNL1       -0.0274
      6 H          -2.0911   -2.8989   -0.5808 H       1  UNL1        0.0288
      7 H          -3.5041   -1.8393   -0.4364 H       1  UNL1        0.0288
      8 C          -3.5408   -3.2034   -2.1551 C.3     1  UNL1       -0.0274
      9 H          -4.4603   -2.7263   -2.4961 H       1  UNL1        0.0288
     10 H          -3.7763   -4.1925   -1.7711 H       1  UNL1        0.0288
     11 C          -2.5152   -3.2543   -3.2826 C.3     1  UNL1        0.0477
     12 H          -1.7757   -4.0439   -3.0998 H       1  UNL1        0.0560
     13 H          -2.9631   -3.4095   -4.2660 H       1  UNL1        0.0560
@<TRIPOS>BOND
     1    13    11    1
     2     1    11    1
     3     1     2    1
     4    11    12    1
     5    11     8    1
     6     9     8    1
     7     3     2    1
     8     8    10    1
     9     8     5    1
    10     2     4    1
    11     2     5    1
    12     5     6    1
    13     5     7    1
