@<TRIPOS>MOLECULE
1
 13 13 0 0 0
SMALL
GASTEIGER

@<TRIPOS>ATOM
      1 O           5.1225    4.8874    4.2915 O.3     1  UNL1       -0.3798
      2 C           4.3680    5.2121    3.1244 C.3     1  UNL1        0.0477
      3 H           4.5991    6.2428    2.8229 H       1  UNL1        0.0560
      4 H           3.3102    5.1419    3.3755 H       1  UNL1        0.0560
      5 C           4.8113    4.2227    2.0308 C.3     1  UNL1       -0.0274
      6 H           4.0525    3.4623    1.8605 H       1  UNL1        0.0288
      7 H           4.9903    4.7428    1.0919 H       1  UNL1        0.0288
      8 C           6.1016    3.6066    2.5961 C.3     1  UNL1       -0.0274
      9 H           6.9175    3.6032    1.8775 H       1  UNL1        0.0288
     10 H           5.9242    2.5842    2.9287 H       1  UNL1        0.0288
     11 C           6.4026    4.5015    3.8005 C.3     1  UNL1        0.0477
     12 H           6.9412    4.0010    4.6064 H       1  UNL1        0.0560
     13 H           6.9603    5.3956    3.4871 H       1  UNL1        0.0560
@<TRIPOS>BOND
     1     7     5    1
     2     6     5    1
     3     9     8    1
     4     5     8    1
     5     5     2    1
     6     8    10    1
     7     8    11    1
     8     3     2    1
     9     2     4    1
    10     2     1    1
    11    13    11    1
    12    11     1    1
    13    11    12    1
