@<TRIPOS>MOLECULE
1
 13 13 0 0 0
SMALL
GASTEIGER

@<TRIPOS>ATOM
      1 O          14.1601    8.5653   16.8350 O.3     1  UNL1       -0.3798
      2 C          14.2047    8.9568   18.2074 C.3     1  UNL1        0.0477
      3 H          14.0028   10.0328   18.2821 H       1  UNL1        0.0560
      4 H          15.2112    8.7472   18.5712 H       1  UNL1        0.0560
      5 C          13.1187    8.1469   18.9424 C.3     1  UNL1       -0.0274
      6 H          12.4499    8.8127   19.4854 H       1  UNL1        0.0288
      7 H          13.5534    7.4451   19.6505 H       1  UNL1        0.0288
      8 C          12.3801    7.4186   17.8124 C.3     1  UNL1       -0.0274
      9 H          11.3018    7.4088   17.9494 H       1  UNL1        0.0288
     10 H          12.7353    6.3923   17.7242 H       1  UNL1        0.0288
     11 C          12.8037    8.2192   16.5819 C.3     1  UNL1        0.0477
     12 H          12.7662    7.6526   15.6514 H       1  UNL1        0.0560
     13 H          12.1998    9.1330   16.4912 H       1  UNL1        0.0560
@<TRIPOS>BOND
     1    12    11    1
     2    13    11    1
     3    11     1    1
     4    11     8    1
     5     1     2    1
     6    10     8    1
     7     8     9    1
     8     8     5    1
     9     2     3    1
    10     2     4    1
    11     2     5    1
    12     5     6    1
    13     5     7    1
