@<TRIPOS>MOLECULE
17
 40 42 0 0 0
SMALL
GASTEIGER

@<TRIPOS>ATOM
      1 C           7.2189    4.5943    7.8714 C.ar    1  UNL1        0.0000
      2 C           6.9843    3.2185    7.6643 C.ar    1  UNL1        0.0000
      3 C           6.7832    2.6705    6.3708 C.ar    1  UNL1        0.0000
      4 C           6.5582    1.3372    6.1963 C.ar    1  UNL1        0.0000
      5 C           6.5053    0.4656    7.3029 C.ar    1  UNL1        0.0000
      6 C           6.7436    0.9419    8.5547 C.ar    1  UNL1        0.0000
      7 C           7.0237    2.3157    8.7731 C.ar    1  UNL1        0.0000
      8 C           7.3559    2.7939   10.0367 C.ar    1  UNL1        0.0000
      9 C           7.6761    4.1333   10.2422 C.ar    1  UNL1        0.0000
     10 C           8.0474    4.6100   11.5251 C.ar    1  UNL1        0.0000
     11 C           8.3165    5.9268   11.7348 C.ar    1  UNL1        0.0000
     12 C           8.2192    6.8422   10.6687 C.ar    1  UNL1        0.0000
     13 C           7.8667    6.4204    9.4220 C.ar    1  UNL1        0.0000
     14 C           7.5976    5.0548    9.1513 C.ar    1  UNL1        0.0000
     15 C           7.0142    5.5537    6.7896 C.2     1  UNL1        0.0000
     16 C           5.9018    5.6145    6.0274 C.2     1  UNL1        0.0000
     17 O           4.9053    4.7314    6.1344 O.2     1  UNL1        0.0000
     18 SI          5.5517    6.9325    4.6917 Si      1  UNL1        0.0000
     19 C           7.1887    7.5366    3.9145 C.3     1  UNL1        0.0000
     20 C           4.4938    6.0346    3.3767 C.3     1  UNL1        0.0000
     21 C           4.7042    8.4218    5.5423 C.3     1  UNL1        0.0000
     22 H           6.8598    3.3234    5.5138 H       1  UNL1        0.0000
     23 H           6.4343    0.9285    5.2037 H       1  UNL1        0.0000
     24 H           6.3022   -0.5832    7.1419 H       1  UNL1        0.0000
     25 H           6.7465    0.2788    9.4085 H       1  UNL1        0.0000
     26 H           7.3779    2.1101   10.8740 H       1  UNL1        0.0000
     27 H           8.1095    3.8967   12.3348 H       1  UNL1        0.0000
     28 H           8.5992    6.2819   12.7148 H       1  UNL1        0.0000
     29 H           8.4241    7.8870   10.8512 H       1  UNL1        0.0000
     30 H           7.7904    7.1377    8.6195 H       1  UNL1        0.0000
     31 H           7.7624    6.3168    6.6400 H       1  UNL1        0.0000
     32 H           7.7945    8.0813    4.6302 H       1  UNL1        0.0000
     33 H           7.7882    6.7170    3.5327 H       1  UNL1        0.0000
     34 H           6.9841    8.2080    3.0880 H       1  UNL1        0.0000
     35 H           5.0688    5.7918    2.4868 H       1  UNL1        0.0000
     36 H           4.1004    5.1044    3.7956 H       1  UNL1        0.0000
     37 H           3.6457    6.6388    3.0695 H       1  UNL1        0.0000
     38 H           3.8043    8.1157    6.0707 H       1  UNL1        0.0000
     39 H           5.3698    8.9020    6.2553 H       1  UNL1        0.0000
     40 H           4.4159    9.1698    4.8101 H       1  UNL1        0.0000
@<TRIPOS>BOND
     1    35    20    1
     2    37    20    1
     3    34    19    1
     4    20    36    1
     5    20    18    1
     6    33    19    1
     7    19    32    1
     8    19    18    1
     9    18    21    1
    10    18    16    1
    11    40    21    1
    12    23     4    1
    13    22     3    1
    14    21    38    1
    15    21    39    1
    16    16    17    1
    17    16    15    2
    18     4     3   ar
    19     4     5   ar
    20     3     2   ar
    21    31    15    1
    22    15     1    1
    23    24     5    1
    24     5     6   ar
    25     2     1   ar
    26     2     7   ar
    27     1    14   ar
    28     6     7   ar
    29     6    25    1
    30    30    13    1
    31     7     8   ar
    32    14    13   ar
    33    14     9   ar
    34    13    12   ar
    35     8     9   ar
    36     8    26    1
    37     9    10   ar
    38    12    29    1
    39    12    11   ar
    40    10    11   ar
    41    10    27    1
    42    11    28    1
