@<TRIPOS>MOLECULE
1
 13 13 0 0 0
SMALL
GASTEIGER

@<TRIPOS>ATOM
      1 O          14.6532    5.2028   17.4598 O.3     1  UNL1       -0.3798
      2 C          14.1828    3.9474   17.9271 C.3     1  UNL1        0.0477
      3 H          13.1251    3.8182   17.6529 H       1  UNL1        0.0560
      4 H          14.7803    3.1677   17.4544 H       1  UNL1        0.0560
      5 C          14.3349    4.0118   19.4489 C.3     1  UNL1       -0.0274
      6 H          15.3481    3.7293   19.7321 H       1  UNL1        0.0288
      7 H          13.6354    3.3528   19.9574 H       1  UNL1        0.0288
      8 C          14.0796    5.4965   19.7515 C.3     1  UNL1       -0.0274
      9 H          14.8366    5.9000   20.4203 H       1  UNL1        0.0288
     10 H          13.1042    5.6483   20.2105 H       1  UNL1        0.0288
     11 C          14.1378    6.1695   18.3653 C.3     1  UNL1        0.0477
     12 H          13.1318    6.4734   18.0453 H       1  UNL1        0.0560
     13 H          14.7994    7.0354   18.3288 H       1  UNL1        0.0560
@<TRIPOS>BOND
     1     4     2    1
     2     1     2    1
     3     1    11    1
     4     3     2    1
     5     2     5    1
     6    12    11    1
     7    13    11    1
     8    11     8    1
     9     5     6    1
    10     5     8    1
    11     5     7    1
    12     8    10    1
    13     8     9    1
