@<TRIPOS>MOLECULE
1
 13 13 0 0 0
SMALL
GASTEIGER

@<TRIPOS>ATOM
      1 O           3.4163    2.7452   10.5505 O.3     1  UNL1       -0.3798
      2 C           2.7586    2.9753    9.3070 C.3     1  UNL1        0.0477
      3 H           3.4610    3.4775    8.6402 H       1  UNL1        0.0560
      4 H           1.8883    3.6267    9.4704 H       1  UNL1        0.0560
      5 C           2.3056    1.5974    8.7946 C.3     1  UNL1       -0.0274
      6 H           2.9710    1.2312    8.0151 H       1  UNL1        0.0288
      7 H           1.3002    1.6493    8.3818 H       1  UNL1        0.0288
      8 C           2.3704    0.7010   10.0427 C.3     1  UNL1       -0.0274
      9 H           1.4378    0.1712   10.2218 H       1  UNL1        0.0288
     10 H           3.1708   -0.0307    9.9505 H       1  UNL1        0.0288
     11 C           2.6800    1.6917   11.1683 C.3     1  UNL1        0.0477
     12 H           1.7463    2.0979   11.5830 H       1  UNL1        0.0560
     13 H           3.3007    1.2898   11.9716 H       1  UNL1        0.0560
@<TRIPOS>BOND
     1     6     5    1
     2     7     5    1
     3     3     2    1
     4     5     2    1
     5     5     8    1
     6     2     4    1
     7     2     1    1
     8    10     8    1
     9     8     9    1
    10     8    11    1
    11     1    11    1
    12    11    12    1
    13    11    13    1
