@<TRIPOS>MOLECULE
1
 13 13 0 0 0
SMALL
GASTEIGER

@<TRIPOS>ATOM
      1 O           2.6316    3.4579    7.8198 O.3     1  UNL1       -0.3798
      2 C           1.8597    3.9717    6.7200 C.3     1  UNL1        0.0477
      3 H           1.9224    3.2402    5.9078 H       1  UNL1        0.0560
      4 H           2.2975    4.9197    6.3880 H       1  UNL1        0.0560
      5 C           0.4209    4.1555    7.2134 C.3     1  UNL1       -0.0274
      6 H           0.2377    5.1963    7.4835 H       1  UNL1        0.0288
      7 H          -0.3070    3.8604    6.4615 H       1  UNL1        0.0288
      8 C           0.3778    3.2700    8.4563 C.3     1  UNL1       -0.0274
      9 H           0.1987    2.2330    8.1758 H       1  UNL1        0.0288
     10 H          -0.3741    3.5839    9.1762 H       1  UNL1        0.0288
     11 C           1.7963    3.4281    8.9841 C.3     1  UNL1        0.0477
     12 H           1.9042    4.3764    9.5315 H       1  UNL1        0.0560
     13 H           2.1399    2.5926    9.6003 H       1  UNL1        0.0560
@<TRIPOS>BOND
     1     3     2    1
     2     4     2    1
     3     7     5    1
     4     2     5    1
     5     2     1    1
     6     5     6    1
     7     5     8    1
     8     1    11    1
     9     9     8    1
    10     8    11    1
    11     8    10    1
    12    11    12    1
    13    11    13    1
