@<TRIPOS>MOLECULE
2
 35 37 0 0 0
SMALL
GASTEIGER

@<TRIPOS>ATOM
      1 SI         -0.3297    1.6849   13.4316 Si      1  UNL1        0.0000
      2 O           0.4719    3.0485   13.3155 O.3     1  UNL1        0.0000
      3 C          -2.1527    2.0081   12.9667 C.ar    1  UNL1        0.0000
      4 C          -2.5748    3.3307   12.8442 C.ar    1  UNL1        0.0000
      5 C          -3.8848    3.6328   12.5175 C.ar    1  UNL1        0.0000
      6 C          -4.8005    2.6148   12.3066 C.ar    1  UNL1        0.0000
      7 C          -4.3957    1.2953   12.4162 C.ar    1  UNL1        0.0000
      8 C          -3.0835    0.9999   12.7416 C.ar    1  UNL1        0.0000
      9 C          -0.2082    1.0546   15.2294 C.ar    1  UNL1        0.0000
     10 C          -0.9754    0.0113   15.7362 C.ar    1  UNL1        0.0000
     11 C          -0.8371   -0.4090   17.0473 C.ar    1  UNL1        0.0000
     12 C           0.0758    0.2150   17.8806 C.ar    1  UNL1        0.0000
     13 C           0.8417    1.2629   17.3964 C.ar    1  UNL1        0.0000
     14 C           0.6999    1.6770   16.0839 C.ar    1  UNL1        0.0000
     15 C           0.4442    0.4155   12.2344 C.ar    1  UNL1        0.0000
     16 C           0.1363   -0.9407   12.2422 C.ar    1  UNL1        0.0000
     17 C           0.7234   -1.8142   11.3438 C.ar    1  UNL1        0.0000
     18 C           1.6382   -1.3420   10.4178 C.ar    1  UNL1        0.0000
     19 C           1.9651    0.0041   10.4017 C.ar    1  UNL1        0.0000
     20 C           1.3731    0.8726   11.3015 C.ar    1  UNL1        0.0000
     21 H          -1.8515    4.1250   13.0017 H       1  UNL1        0.0000
     22 H          -4.1940    4.6646   12.4253 H       1  UNL1        0.0000
     23 H          -5.8262    2.8480   12.0526 H       1  UNL1        0.0000
     24 H          -5.1053    0.4961   12.2447 H       1  UNL1        0.0000
     25 H          -2.7739   -0.0334   12.8116 H       1  UNL1        0.0000
     26 H          -1.7001   -0.4735   15.0973 H       1  UNL1        0.0000
     27 H          -1.4432   -1.2233   17.4230 H       1  UNL1        0.0000
     28 H           0.1856   -0.1125   18.9061 H       1  UNL1        0.0000
     29 H           1.5503    1.7586   18.0452 H       1  UNL1        0.0000
     30 H           1.2916    2.5036   15.7025 H       1  UNL1        0.0000
     31 H          -0.5665   -1.3209   12.9700 H       1  UNL1        0.0000
     32 H           0.4706   -2.8664   11.3657 H       1  UNL1        0.0000
     33 H           2.0981   -2.0235    9.7143 H       1  UNL1        0.0000
     34 H           2.6848    0.3762    9.6859 H       1  UNL1        0.0000
     35 H           1.6328    1.9267   11.2985 H       1  UNL1        0.0000
@<TRIPOS>BOND
     1    34    19    1
     2    33    18    1
     3    19    18   ar
     4    19    20   ar
     5    18    17   ar
     6    35    20    1
     7    20    15   ar
     8    17    32    1
     9    17    16   ar
    10    23     6    1
    11    15    16   ar
    12    15     1    1
    13    16    31    1
    14    24     7    1
    15     6     7   ar
    16     6     5   ar
    17     7     8   ar
    18    22     5    1
    19     5     4   ar
    20     8    25    1
    21     8     3   ar
    22     4     3   ar
    23     4    21    1
    24     3     1    1
    25     2     1    1
    26     1     9    1
    27    26    10    1
    28     9    10   ar
    29     9    14   ar
    30    30    14    1
    31    10    11   ar
    32    14    13   ar
    33    11    27    1
    34    11    12   ar
    35    13    12   ar
    36    13    29    1
    37    12    28    1
