@<TRIPOS>MOLECULE
1
 13 13 0 0 0
SMALL
GASTEIGER

@<TRIPOS>ATOM
      1 O           2.7536    4.4787    3.4795 O.3     1  UNL1       -0.3798
      2 C           3.2462    5.7965    3.1756 C.3     1  UNL1        0.0477
      3 H           3.9173    5.7289    2.3131 H       1  UNL1        0.0560
      4 H           3.8096    6.1539    4.0457 H       1  UNL1        0.0560
      5 C           2.0273    6.6778    2.9072 C.3     1  UNL1       -0.0274
      6 H           2.1943    7.7065    3.2164 H       1  UNL1        0.0288
      7 H           1.7697    6.6650    1.8474 H       1  UNL1        0.0288
      8 C           0.9454    5.9763    3.7230 C.3     1  UNL1       -0.0274
      9 H          -0.0624    6.1951    3.3800 H       1  UNL1        0.0288
     10 H           1.0332    6.2389    4.7761 H       1  UNL1        0.0288
     11 C           1.3205    4.5140    3.5254 C.3     1  UNL1        0.0477
     12 H           0.9852    3.8739    4.3437 H       1  UNL1        0.0560
     13 H           0.9245    4.1311    2.5746 H       1  UNL1        0.0560
@<TRIPOS>BOND
     1     7     5    1
     2     3     2    1
     3    13    11    1
     4     5     2    1
     5     5     6    1
     6     5     8    1
     7     2     1    1
     8     2     4    1
     9     9     8    1
    10     1    11    1
    11    11     8    1
    12    11    12    1
    13     8    10    1
