@<TRIPOS>MOLECULE
1
 13 13 0 0 0
SMALL
GASTEIGER

@<TRIPOS>ATOM
      1 O          -1.1959    5.7625   -9.8561 O.3     1  UNL1       -0.3798
      2 C           0.0356    5.1354   -9.4650 C.3     1  UNL1        0.0477
      3 H          -0.1917    4.2523   -8.8545 H       1  UNL1        0.0560
      4 H           0.6010    5.8513   -8.8675 H       1  UNL1        0.0560
      5 C           0.7470    4.7289  -10.7644 C.3     1  UNL1       -0.0274
      6 H           1.5583    5.4151  -11.0011 H       1  UNL1        0.0288
      7 H           1.1664    3.7292  -10.6727 H       1  UNL1        0.0288
      8 C          -0.3609    4.7901  -11.8264 C.3     1  UNL1       -0.0274
      9 H          -0.2052    5.6282  -12.5040 H       1  UNL1        0.0288
     10 H          -0.4298    3.8777  -12.4134 H       1  UNL1        0.0288
     11 C          -1.6270    5.0203  -11.0012 C.3     1  UNL1        0.0477
     12 H          -2.3818    5.6052  -11.5280 H       1  UNL1        0.0560
     13 H          -2.0624    4.0671  -10.6728 H       1  UNL1        0.0560
@<TRIPOS>BOND
     1     9     8    1
     2    10     8    1
     3     8    11    1
     4     8     5    1
     5    12    11    1
     6    11    13    1
     7    11     1    1
     8     6     5    1
     9     5     7    1
    10     5     2    1
    11     1     2    1
    12     2     4    1
    13     2     3    1
