@<TRIPOS>MOLECULE
1
 36 36 0 0 0
SMALL
GASTEIGER

@<TRIPOS>ATOM
      1 O          12.7798    3.5675    1.5498 O.3     1  UNL1       -0.2873
      2 C          11.8228    4.1861    0.8683 C.ar    1  UNL1        0.1863
      3 C          11.5629    3.8451   -0.4888 C.ar    1  UNL1        0.0049
      4 C          10.6853    4.6250   -1.2241 C.ar    1  UNL1       -0.0544
      5 C          10.0215    5.6958   -0.6611 C.ar    1  UNL1       -0.0610
      6 C          10.1839    5.9587    0.6837 C.ar    1  UNL1       -0.0544
      7 C          11.0522    5.2202    1.4711 C.ar    1  UNL1        0.0049
      8 C          12.1871    2.5998   -1.1154 C.3     1  UNL1       -0.0090
      9 C          11.6890    2.3336   -2.5427 C.3     1  UNL1       -0.0559
     10 C          13.7148    2.7353   -1.1863 C.3     1  UNL1       -0.0559
     11 C          11.7766    1.3908   -0.2596 C.3     1  UNL1       -0.0559
     12 C          11.1670    5.5224    2.9635 C.3     1  UNL1       -0.0090
     13 C          12.5507    6.1220    3.2452 C.3     1  UNL1       -0.0559
     14 C          10.9506    4.2275    3.7612 C.3     1  UNL1       -0.0559
     15 C          10.1190    6.5283    3.4598 C.3     1  UNL1       -0.0559
     16 H          10.5028    4.4056   -2.2623 H       1  UNL1        0.0622
     17 H           9.3565    6.3008   -1.2591 H       1  UNL1        0.0618
     18 H           9.6145    6.7646    1.1147 H       1  UNL1        0.0622
     19 H          10.6087    2.2144   -2.5689 H       1  UNL1        0.0238
     20 H          11.9788    3.1320   -3.2220 H       1  UNL1        0.0238
     21 H          12.1359    1.4100   -2.9067 H       1  UNL1        0.0238
     22 H          14.1383    1.8794   -1.7088 H       1  UNL1        0.0238
     23 H          13.9810    3.6359   -1.7399 H       1  UNL1        0.0238
     24 H          14.1488    2.7872   -0.1835 H       1  UNL1        0.0238
     25 H          10.6922    1.3667   -0.1576 H       1  UNL1        0.0238
     26 H          12.0911    0.4632   -0.7358 H       1  UNL1        0.0238
     27 H          12.2194    1.4497    0.7381 H       1  UNL1        0.0238
     28 H          13.3323    5.4405    2.9128 H       1  UNL1        0.0238
     29 H          12.6603    7.0664    2.7127 H       1  UNL1        0.0238
     30 H          12.6736    6.3113    4.3107 H       1  UNL1        0.0238
     31 H           9.9444    3.8521    3.5800 H       1  UNL1        0.0238
     32 H          11.6679    3.4573    3.4687 H       1  UNL1        0.0238
     33 H          11.0577    4.4211    4.8280 H       1  UNL1        0.0238
     34 H          10.2173    6.6353    4.5387 H       1  UNL1        0.0238
     35 H          10.2631    7.5111    3.0170 H       1  UNL1        0.0238
     36 H           9.1095    6.1848    3.2465 H       1  UNL1        0.0238
@<TRIPOS>BOND
     1    20     9    1
     2    21     9    1
     3    19     9    1
     4     9     8    1
     5    16     4    1
     6    23    10    1
     7    22    10    1
     8    17     5    1
     9     4     5   ar
    10     4     3   ar
    11    10     8    1
    12    10    24    1
    13     8     3    1
    14     8    11    1
    15    26    11    1
    16     5     6   ar
    17     3     2   ar
    18    11    25    1
    19    11    27    1
    20     6    18    1
    21     6     7   ar
    22     2     7   ar
    23     2     1    1
    24     7    12    1
    25    29    13    1
    26    28    13    1
    27    12    13    1
    28    12    15    1
    29    12    14    1
    30    35    15    1
    31    13    30    1
    32    36    15    1
    33    15    34    1
    34    32    14    1
    35    31    14    1
    36    14    33    1
