@<TRIPOS>MOLECULE
1
 13 13 0 0 0
SMALL
GASTEIGER

@<TRIPOS>ATOM
      1 O          13.0144   15.6059   23.6182 O.3     1  UNL1       -0.3798
      2 C          13.4634   16.3937   24.7256 C.3     1  UNL1        0.0477
      3 H          13.9208   17.3209   24.3491 H       1  UNL1        0.0560
      4 H          14.2029   15.8176   25.2855 H       1  UNL1        0.0560
      5 C          12.2013   16.6913   25.5351 C.3     1  UNL1       -0.0274
      6 H          12.2958   17.6157   26.0993 H       1  UNL1        0.0288
      7 H          12.0123   15.8762   26.2325 H       1  UNL1        0.0288
      8 C          11.1055   16.7602   24.4621 C.3     1  UNL1       -0.0274
      9 H          10.2536   16.1359   24.7262 H       1  UNL1        0.0288
     10 H          10.7463   17.7769   24.3169 H       1  UNL1        0.0288
     11 C          11.8020   16.2481   23.1905 C.3     1  UNL1        0.0477
     12 H          11.2083   15.5140   22.6420 H       1  UNL1        0.0560
     13 H          12.0574   17.0845   22.5249 H       1  UNL1        0.0560
@<TRIPOS>BOND
     1    13    11    1
     2    12    11    1
     3    11     1    1
     4    11     8    1
     5     1     2    1
     6    10     8    1
     7     3     2    1
     8     8     9    1
     9     8     5    1
    10     2     4    1
    11     2     5    1
    12     5     6    1
    13     5     7    1
