@<TRIPOS>MOLECULE
1
 13 13 0 0 0
SMALL
GASTEIGER

@<TRIPOS>ATOM
      1 O           8.2030    5.6015    3.0359 O.3     1  UNL1       -0.3798
      2 C           8.4261    6.0968    1.7067 C.3     1  UNL1        0.0477
      3 H           8.1493    5.3235    0.9897 H       1  UNL1        0.0560
      4 H           7.7846    6.9709    1.5425 H       1  UNL1        0.0560
      5 C           9.9002    6.4746    1.6240 C.3     1  UNL1       -0.0274
      6 H          10.4981    5.5993    1.3667 H       1  UNL1        0.0288
      7 H          10.0802    7.2593    0.8933 H       1  UNL1        0.0288
      8 C          10.1822    6.9098    3.0584 C.3     1  UNL1       -0.0274
      9 H           9.8123    7.9205    3.2242 H       1  UNL1        0.0288
     10 H          11.2368    6.8652    3.3192 H       1  UNL1        0.0288
     11 C           9.3565    5.8967    3.8426 C.3     1  UNL1        0.0477
     12 H           9.9300    4.9732    3.9785 H       1  UNL1        0.0560
     13 H           9.0051    6.2536    4.8135 H       1  UNL1        0.0560
@<TRIPOS>BOND
     1     7     5    1
     2     3     2    1
     3     6     5    1
     4     4     2    1
     5     5     2    1
     6     5     8    1
     7     2     1    1
     8     1    11    1
     9     8     9    1
    10     8    10    1
    11     8    11    1
    12    11    12    1
    13    11    13    1
