@<TRIPOS>MOLECULE
6
 12 12 0 0 0
SMALL
GASTEIGER

@<TRIPOS>ATOM
      1 CL         10.3085   10.4749   10.0472 Cl      1  UNL1       -0.0780
      2 CL         12.8405   10.2761   11.8743 Cl      1  UNL1       -0.0803
      3 CL         13.8730    7.4653   12.7769 Cl      1  UNL1       -0.0804
      4 CL         12.3603    4.9072   11.8428 Cl      1  UNL1       -0.0803
      5 CL          9.8312    5.1535   10.0309 Cl      1  UNL1       -0.0780
      6 O           9.1399    7.9203    9.3861 O.3     1  UNL1       -0.2847
      7 C          10.1686    7.8201   10.1159 C.ar    1  UNL1        0.2182
      8 C          10.9041    8.9504   10.5623 C.ar    1  UNL1        0.1087
      9 C          12.0210    8.8504   11.3677 C.ar    1  UNL1        0.0827
     10 C          12.4810    7.5989   11.7720 C.ar    1  UNL1        0.0806
     11 C          11.7993    6.4570   11.3513 C.ar    1  UNL1        0.0827
     12 C          10.6795    6.5659   10.5476 C.ar    1  UNL1        0.1087
@<TRIPOS>BOND
     1     6     7    1
     2     5    12    1
     3     1     8    1
     4     7    12   ar
     5     7     8   ar
     6    12    11   ar
     7     8     9   ar
     8    11    10   ar
     9    11     4    1
    10     9    10   ar
    11     9     2    1
    12    10     3    1
