@<TRIPOS>MOLECULE
1
 36 36 0 0 0
SMALL
GASTEIGER

@<TRIPOS>ATOM
      1 O           4.6684    4.4535    6.6117 O.3     1  UNL1       -0.2873
      2 C           5.0940    4.1507    7.8359 C.ar    1  UNL1        0.1863
      3 C           4.2416    4.3351    8.9637 C.ar    1  UNL1        0.0049
      4 C           4.7091    4.0237   10.2293 C.ar    1  UNL1       -0.0544
      5 H           4.0816    4.1686   11.0926 H       1  UNL1        0.0622
      6 C           5.9768    3.5196   10.4301 C.ar    1  UNL1       -0.0610
      7 H           6.3199    3.2825   11.4265 H       1  UNL1        0.0618
      8 C           6.7990    3.3152    9.3418 C.ar    1  UNL1       -0.0544
      9 H           7.7800    2.9111    9.5256 H       1  UNL1        0.0622
     10 C           6.3958    3.6152    8.0504 C.ar    1  UNL1        0.0049
     11 C           2.8010    4.8171    8.7978 C.3     1  UNL1       -0.0090
     12 C           2.7613    6.1772    8.0887 C.3     1  UNL1       -0.0559
     13 H           3.2588    6.9280    8.7015 H       1  UNL1        0.0238
     14 H           1.7262    6.4830    7.9340 H       1  UNL1        0.0238
     15 H           3.2686    6.1331    7.1214 H       1  UNL1        0.0238
     16 C           2.0415    3.7526    7.9955 C.3     1  UNL1       -0.0559
     17 H           2.5724    3.5325    7.0736 H       1  UNL1        0.0238
     18 H           1.0327    4.0913    7.7612 H       1  UNL1        0.0238
     19 H           1.9773    2.8332    8.5752 H       1  UNL1        0.0238
     20 C           2.0538    5.0002   10.1268 C.3     1  UNL1       -0.0559
     21 H           1.9718    4.0629   10.6714 H       1  UNL1        0.0238
     22 H           1.0438    5.3512    9.9178 H       1  UNL1        0.0238
     23 H           2.5418    5.7391   10.7582 H       1  UNL1        0.0238
     24 C           7.3869    3.4233    6.9004 C.3     1  UNL1       -0.0090
     25 C           7.8252    4.8153    6.4234 C.3     1  UNL1       -0.0559
     26 H           6.9690    5.3955    6.0630 H       1  UNL1        0.0238
     27 H           8.5614    4.7326    5.6257 H       1  UNL1        0.0238
     28 H           8.2765    5.3574    7.2541 H       1  UNL1        0.0238
     29 C           6.7650    2.6088    5.7561 C.3     1  UNL1       -0.0559
     30 H           6.3325    1.6904    6.1500 H       1  UNL1        0.0238
     31 H           7.5251    2.3417    5.0234 H       1  UNL1        0.0238
     32 H           5.9786    3.1698    5.2409 H       1  UNL1        0.0238
     33 C           8.6576    2.6673    7.3216 C.3     1  UNL1       -0.0559
     34 H           9.2352    3.2268    8.0531 H       1  UNL1        0.0238
     35 H           9.2900    2.5227    6.4471 H       1  UNL1        0.0238
     36 H           8.4160    1.6881    7.7280 H       1  UNL1        0.0238
@<TRIPOS>BOND
     1    31    29    1
     2    32    29    1
     3    27    25    1
     4    29    30    1
     5    29    24    1
     6    26    25    1
     7    25    24    1
     8    25    28    1
     9    35    33    1
    10     1     2    1
    11    24    33    1
    12    24    10    1
    13    17    16    1
    14    15    12    1
    15    33    36    1
    16    33    34    1
    17    18    16    1
    18     2    10   ar
    19     2     3   ar
    20    14    12    1
    21    16    19    1
    22    16    11    1
    23    10     8   ar
    24    12    13    1
    25    12    11    1
    26    11     3    1
    27    11    20    1
    28     3     4   ar
    29     8     9    1
    30     8     6   ar
    31    22    20    1
    32    20    21    1
    33    20    23    1
    34     4     6   ar
    35     4     5    1
    36     6     7    1
