@<TRIPOS>MOLECULE
1
 36 36 0 0 0
SMALL
GASTEIGER

@<TRIPOS>ATOM
      1 O           4.6084    4.1928    3.3189 O.3     1  UNL1       -0.2873
      2 C           4.8934    3.2282    2.4472 C.ar    1  UNL1        0.1863
      3 C           4.0378    2.0967    2.3204 C.ar    1  UNL1        0.0049
      4 C           4.4224    1.0424    1.5096 C.ar    1  UNL1       -0.0544
      5 H           3.8061    0.1625    1.4308 H       1  UNL1        0.0622
      6 C           5.5955    1.0788    0.7844 C.ar    1  UNL1       -0.0610
      7 H           5.8886    0.2360    0.1758 H       1  UNL1        0.0618
      8 C           6.3705    2.2198    0.8154 C.ar    1  UNL1       -0.0544
      9 H           7.2547    2.2427    0.2007 H       1  UNL1        0.0622
     10 C           6.0399    3.3087    1.6059 C.ar    1  UNL1        0.0049
     11 C           2.6885    2.0502    3.0361 C.3     1  UNL1       -0.0090
     12 C           1.8485    0.8184    2.6691 C.3     1  UNL1       -0.0559
     13 H           2.3300   -0.1018    2.9904 H       1  UNL1        0.0238
     14 H           1.6634    0.7705    1.5987 H       1  UNL1        0.0238
     15 H           0.8859    0.8828    3.1743 H       1  UNL1        0.0238
     16 C           1.8738    3.2828    2.6162 C.3     1  UNL1       -0.0559
     17 H           0.8987    3.2858    3.1002 H       1  UNL1        0.0238
     18 H           1.7256    3.2734    1.5373 H       1  UNL1        0.0238
     19 H           2.3953    4.2009    2.8821 H       1  UNL1        0.0238
     20 C           2.8957    2.0093    4.5553 C.3     1  UNL1       -0.0559
     21 H           3.4565    2.8850    4.8982 H       1  UNL1        0.0238
     22 H           3.4617    1.1195    4.8257 H       1  UNL1        0.0238
     23 H           1.9347    1.9771    5.0679 H       1  UNL1        0.0238
     24 C           6.9039    4.5693    1.5443 C.3     1  UNL1       -0.0090
     25 C           6.0108    5.7839    1.2600 C.3     1  UNL1       -0.0559
     26 H           5.4363    5.6271    0.3479 H       1  UNL1        0.0238
     27 H           6.6183    6.6807    1.1379 H       1  UNL1        0.0238
     28 H           5.3273    5.9331    2.0950 H       1  UNL1        0.0238
     29 C           7.6349    4.7650    2.8768 C.3     1  UNL1       -0.0559
     30 H           6.9142    4.9594    3.6772 H       1  UNL1        0.0238
     31 H           8.3172    5.6122    2.8136 H       1  UNL1        0.0238
     32 H           8.2104    3.8729    3.1176 H       1  UNL1        0.0238
     33 C           7.9645    4.5190    0.4350 C.3     1  UNL1       -0.0559
     34 H           8.7046    3.7459    0.6257 H       1  UNL1        0.0238
     35 H           8.4872    5.4740    0.3998 H       1  UNL1        0.0238
     36 H           7.5105    4.3484   -0.5386 H       1  UNL1        0.0238
@<TRIPOS>BOND
     1    36    33    1
     2     7     6    1
     3     9     8    1
     4    26    25    1
     5    35    33    1
     6    33    34    1
     7    33    24    1
     8     6     8   ar
     9     6     4   ar
    10     8    10   ar
    11    27    25    1
    12    25    24    1
    13    25    28    1
    14     5     4    1
    15     4     3   ar
    16    18    16    1
    17    24    10    1
    18    24    29    1
    19    14    12    1
    20    10     2   ar
    21     3     2   ar
    22     3    11    1
    23     2     1    1
    24    16    19    1
    25    16    11    1
    26    16    17    1
    27    12    13    1
    28    12    11    1
    29    12    15    1
    30    31    29    1
    31    29    32    1
    32    29    30    1
    33    11    20    1
    34    20    22    1
    35    20    21    1
    36    20    23    1
