@<TRIPOS>MOLECULE
1
 13 13 0 0 0
SMALL
GASTEIGER

@<TRIPOS>ATOM
      1 O           0.6734    0.9710    3.4084 O.3     1  UNL1       -0.3798
      2 C           1.3330    0.9488    4.6929 C.3     1  UNL1        0.0477
      3 H           1.7462    1.9481    4.8784 H       1  UNL1        0.0560
      4 H           0.5777    0.7227    5.4579 H       1  UNL1        0.0560
      5 C           2.3846   -0.1553    4.6175 C.3     1  UNL1       -0.0274
      6 H           2.5744   -0.6047    5.5891 H       1  UNL1        0.0288
      7 H           3.3211    0.2293    4.2139 H       1  UNL1        0.0288
      8 C           1.7473   -1.1221    3.6231 C.3     1  UNL1       -0.0274
      9 H           0.9760   -1.7177    4.1143 H       1  UNL1        0.0288
     10 H           2.4657   -1.7894    3.1538 H       1  UNL1        0.0288
     11 C           1.1269   -0.1483    2.6280 C.3     1  UNL1        0.0477
     12 H           1.8744    0.1946    1.9011 H       1  UNL1        0.0560
     13 H           0.2762   -0.5584    2.0762 H       1  UNL1        0.0560
@<TRIPOS>BOND
     1    12    11    1
     2    13    11    1
     3    11     1    1
     4    11     8    1
     5    10     8    1
     6     1     2    1
     7     8     9    1
     8     8     5    1
     9     7     5    1
    10     5     2    1
    11     5     6    1
    12     2     3    1
    13     2     4    1
