@<TRIPOS>MOLECULE
1
 13 13 0 0 0
SMALL
GASTEIGER

@<TRIPOS>ATOM
      1 O          -1.9619    0.9712    2.3066 O.3     1  UNL1       -0.3798
      2 C          -2.6213    0.9489    1.0220 C.3     1  UNL1        0.0477
      3 H          -3.0345    1.9480    0.8362 H       1  UNL1        0.0560
      4 H          -1.8659    0.7226    0.2571 H       1  UNL1        0.0560
      5 C          -3.6728   -0.1554    1.0973 C.3     1  UNL1       -0.0274
      6 H          -3.8624   -0.6049    0.1257 H       1  UNL1        0.0288
      7 H          -4.6094    0.2292    1.5006 H       1  UNL1        0.0288
      8 C          -3.0356   -1.1220    2.0919 C.3     1  UNL1       -0.0274
      9 H          -2.2641   -1.7175    1.6009 H       1  UNL1        0.0288
     10 H          -3.7540   -1.7893    2.5611 H       1  UNL1        0.0288
     11 C          -2.4155   -0.1480    3.0869 C.3     1  UNL1        0.0477
     12 H          -3.1633    0.1950    3.8136 H       1  UNL1        0.0560
     13 H          -1.5649   -0.5579    3.6391 H       1  UNL1        0.0560
@<TRIPOS>BOND
     1     6     5    1
     2     4     2    1
     3     3     2    1
     4     2     5    1
     5     2     1    1
     6     5     7    1
     7     5     8    1
     8     9     8    1
     9     8    10    1
    10     8    11    1
    11     1    11    1
    12    11    13    1
    13    11    12    1
