@<TRIPOS>MOLECULE
1
 13 13 0 0 0
SMALL
GASTEIGER

@<TRIPOS>ATOM
      1 O           0.0142   10.8809   17.8521 O.3     1  UNL1       -0.3798
      2 C          -0.2547    9.5070   17.5611 C.3     1  UNL1        0.0477
      3 H          -0.4766    8.9775   18.4962 H       1  UNL1        0.0560
      4 H           0.6381    9.0706   17.1147 H       1  UNL1        0.0560
      5 C          -1.4807    9.4948   16.6359 C.3     1  UNL1       -0.0274
      6 H          -1.1809    9.3997   15.5942 H       1  UNL1        0.0288
      7 H          -2.1417    8.6657   16.8788 H       1  UNL1        0.0288
      8 C          -2.1414   10.8586   16.8947 C.3     1  UNL1       -0.0274
      9 H          -3.1812   10.7681   17.1992 H       1  UNL1        0.0288
     10 H          -2.0983   11.4837   16.0041 H       1  UNL1        0.0288
     11 C          -1.2833   11.4618   18.0111 C.3     1  UNL1        0.0477
     12 H          -1.6819   11.1898   18.9959 H       1  UNL1        0.0560
     13 H          -1.1852   12.5454   17.9431 H       1  UNL1        0.0560
@<TRIPOS>BOND
     1     6     5    1
     2    10     8    1
     3     5     7    1
     4     5     8    1
     5     5     2    1
     6     8     9    1
     7     8    11    1
     8     4     2    1
     9     2     1    1
    10     2     3    1
    11     1    11    1
    12    13    11    1
    13    11    12    1
