@<TRIPOS>MOLECULE
1
 13 13 0 0 0
SMALL
GASTEIGER

@<TRIPOS>ATOM
      1 O           3.5247    3.1458    7.9687 O.3     1  UNL1       -0.3798
      2 C           2.9444    1.8279    7.9200 C.3     1  UNL1        0.0477
      3 H           3.7125    1.1046    8.2035 H       1  UNL1        0.0560
      4 H           2.6186    1.6314    6.8914 H       1  UNL1        0.0560
      5 C           1.7551    1.8421    8.8746 C.3     1  UNL1       -0.0274
      6 H           0.9897    1.1257    8.5880 H       1  UNL1        0.0288
      7 H           2.0814    1.6269    9.8926 H       1  UNL1        0.0288
      8 C           1.2945    3.2917    8.7621 C.3     1  UNL1       -0.0274
      9 H           0.6993    3.6215    9.6096 H       1  UNL1        0.0288
     10 H           0.7259    3.4395    7.8441 H       1  UNL1        0.0288
     11 C           2.6282    4.0228    8.6734 C.3     1  UNL1        0.0477
     12 H           2.5604    4.9662    8.1249 H       1  UNL1        0.0560
     13 H           3.0368    4.2110    9.6750 H       1  UNL1        0.0560
@<TRIPOS>BOND
     1     4     2    1
     2    10     8    1
     3     2     1    1
     4     2     3    1
     5     2     5    1
     6     1    11    1
     7    12    11    1
     8     6     5    1
     9    11     8    1
    10    11    13    1
    11     8     5    1
    12     8     9    1
    13     5     7    1
