@<TRIPOS>MOLECULE
1
 13 13 0 0 0
SMALL
GASTEIGER

@<TRIPOS>ATOM
      1 O          -0.5061    8.9715    3.2309 O.3     1  UNL1       -0.3798
      2 C          -0.8193    9.6297    1.9887 C.3     1  UNL1        0.0477
      3 H          -1.5091    9.0048    1.4144 H       1  UNL1        0.0560
      4 H           0.1150    9.7315    1.4279 H       1  UNL1        0.0560
      5 C          -1.4266   10.9953    2.3308 C.3     1  UNL1       -0.0274
      6 H          -1.0482   11.7817    1.6825 H       1  UNL1        0.0288
      7 H          -2.5124   10.9625    2.2395 H       1  UNL1        0.0288
      8 C          -1.0245   11.1886    3.7910 C.3     1  UNL1       -0.0274
      9 H          -1.6995   11.8418    4.3375 H       1  UNL1        0.0288
     10 H          -0.0090   11.5762    3.8626 H       1  UNL1        0.0288
     11 C          -1.0588    9.7540    4.2973 C.3     1  UNL1        0.0477
     12 H          -0.4491    9.5932    5.1889 H       1  UNL1        0.0560
     13 H          -2.0925    9.4350    4.4899 H       1  UNL1        0.0560
@<TRIPOS>BOND
     1     3     2    1
     2     4     2    1
     3     6     5    1
     4     2     5    1
     5     2     1    1
     6     7     5    1
     7     5     8    1
     8     1    11    1
     9     8    10    1
    10     8    11    1
    11     8     9    1
    12    11    13    1
    13    11    12    1
