@<TRIPOS>MOLECULE
1
 14 13 0 0 0
SMALL
GASTEIGER

@<TRIPOS>ATOM
      1 O           5.7611    8.3383    4.2921 O.3     1  UNL1        0.0000
      2 SI          4.8183    9.5489    4.6566 Si      1  UNL1        0.0000
      3 C           4.9637    9.9671    6.5224 C.3     1  UNL1        0.0000
      4 H           5.9772   10.2355    6.8068 H       1  UNL1        0.0000
      5 H           4.6585    9.1324    7.1459 H       1  UNL1        0.0000
      6 H           4.3255   10.8093    6.7699 H       1  UNL1        0.0000
      7 C           2.9602    9.1879    4.3369 C.3     1  UNL1        0.0000
      8 H           2.7261    9.1741    3.2752 H       1  UNL1        0.0000
      9 H           2.3289    9.9420    4.7960 H       1  UNL1        0.0000
     10 H           2.6684    8.2251    4.7488 H       1  UNL1        0.0000
     11 C           5.2370   11.1615    3.6966 C.3     1  UNL1        0.0000
     12 H           6.3017   11.2401    3.4947 H       1  UNL1        0.0000
     13 H           4.9473   12.0421    4.2610 H       1  UNL1        0.0000
     14 H           4.7198   11.2102    2.7417 H       1  UNL1        0.0000
@<TRIPOS>BOND
     1    14    11    1
     2     8     7    1
     3    12    11    1
     4    11    13    1
     5    11     2    1
     6     1     2    1
     7     7     2    1
     8     7    10    1
     9     7     9    1
    10     2     3    1
    11     3     6    1
    12     3     4    1
    13     3     5    1
