@<TRIPOS>MOLECULE
2
 41 40 0 0 0
SMALL
GASTEIGER

@<TRIPOS>ATOM
      1 SI          6.3886   12.3894    0.0189 Si      1  UNL1        0.0000
      2 O           7.7052   13.0106    0.7105 O.3     1  UNL1        0.0000
      3 C           6.8876   10.5292   -0.3581 C.3     1  UNL1        0.0000
      4 C           8.3304   10.4828   -0.8745 C.3     1  UNL1        0.0000
      5 H           8.6786    9.4506   -0.9247 H       1  UNL1        0.0000
      6 H           8.9858   11.0338   -0.1970 H       1  UNL1        0.0000
      7 H           8.4146   10.9108   -1.8674 H       1  UNL1        0.0000
      8 C           5.9659    9.8598   -1.3780 C.3     1  UNL1        0.0000
      9 H           4.9345    9.8707   -1.0356 H       1  UNL1        0.0000
     10 H           6.2629    8.8220   -1.5311 H       1  UNL1        0.0000
     11 H           6.0090   10.3654   -2.3387 H       1  UNL1        0.0000
     12 C           6.8730    9.6939    0.9260 C.3     1  UNL1        0.0000
     13 H           5.8665    9.5761    1.3158 H       1  UNL1        0.0000
     14 H           7.4982   10.1594    1.6860 H       1  UNL1        0.0000
     15 H           7.2668    8.6965    0.7253 H       1  UNL1        0.0000
     16 C           6.1573   13.5239   -1.5653 C.3     1  UNL1        0.0000
     17 C           7.2203   13.1978   -2.6183 C.3     1  UNL1        0.0000
     18 H           7.0968   12.1943   -3.0150 H       1  UNL1        0.0000
     19 H           8.2139   13.2944   -2.1871 H       1  UNL1        0.0000
     20 H           7.1450   13.8952   -3.4535 H       1  UNL1        0.0000
     21 C           4.7802   13.3628   -2.2096 C.3     1  UNL1        0.0000
     22 H           3.9881   13.6568   -1.5270 H       1  UNL1        0.0000
     23 H           4.6079   12.3311   -2.5047 H       1  UNL1        0.0000
     24 H           4.7055   13.9884   -3.0993 H       1  UNL1        0.0000
     25 C           6.3710   14.9942   -1.1828 C.3     1  UNL1        0.0000
     26 H           7.3060   15.1059   -0.6301 H       1  UNL1        0.0000
     27 H           5.5618   15.3737   -0.5689 H       1  UNL1        0.0000
     28 H           6.4266   15.6085   -2.0819 H       1  UNL1        0.0000
     29 C           4.9617   12.5672    1.3523 C.3     1  UNL1        0.0000
     30 C           3.7380   11.7066    1.0359 C.3     1  UNL1        0.0000
     31 H           3.3221   11.9640    0.0652 H       1  UNL1        0.0000
     32 H           2.9659   11.8621    1.7896 H       1  UNL1        0.0000
     33 H           3.9881   10.6497    1.0274 H       1  UNL1        0.0000
     34 C           4.4984   14.0228    1.4616 C.3     1  UNL1        0.0000
     35 H           5.3446   14.6787    1.6489 H       1  UNL1        0.0000
     36 H           3.9896   14.3486    0.5588 H       1  UNL1        0.0000
     37 H           3.7997   14.1286    2.2927 H       1  UNL1        0.0000
     38 C           5.5056   12.1835    2.7343 C.3     1  UNL1        0.0000
     39 H           5.6625   11.1146    2.8251 H       1  UNL1        0.0000
     40 H           6.4544   12.6871    2.9177 H       1  UNL1        0.0000
     41 H           4.8046   12.4858    3.5129 H       1  UNL1        0.0000
@<TRIPOS>BOND
     1    20    17    1
     2    24    21    1
     3    18    17    1
     4    17    19    1
     5    17    16    1
     6    23    21    1
     7    11     8    1
     8    21    16    1
     9    21    22    1
    10    28    25    1
    11     7     4    1
    12    16    25    1
    13    16     1    1
    14    10     8    1
    15     8     9    1
    16     8     3    1
    17    25    26    1
    18    25    27    1
    19     5     4    1
    20     4     3    1
    21     4     6    1
    22     3     1    1
    23     3    12    1
    24     1     2    1
    25     1    29    1
    26    31    30    1
    27    36    34    1
    28    15    12    1
    29    12    13    1
    30    12    14    1
    31    33    30    1
    32    30    29    1
    33    30    32    1
    34    29    34    1
    35    29    38    1
    36    34    35    1
    37    34    37    1
    38    38    39    1
    39    38    40    1
    40    38    41    1
