@<TRIPOS>MOLECULE
2
 41 40 0 0 0
SMALL
GASTEIGER

@<TRIPOS>ATOM
      1 SI         11.8442   13.2055    3.4830 Si      1  UNL1        0.0000
      2 O          10.5443   13.4530    2.5627 O.3     1  UNL1        0.0000
      3 C          13.2589   12.6391    2.2485 C.3     1  UNL1        0.0000
      4 C          14.4528   12.0020    2.9606 C.3     1  UNL1        0.0000
      5 H          15.2190   11.7287    2.2351 H       1  UNL1        0.0000
      6 H          14.1618   11.1017    3.4941 H       1  UNL1        0.0000
      7 H          14.8928   12.6922    3.6758 H       1  UNL1        0.0000
      8 C          13.7755   13.8278    1.4324 C.3     1  UNL1        0.0000
      9 H          12.9521   14.3369    0.9383 H       1  UNL1        0.0000
     10 H          14.3093   14.5388    2.0566 H       1  UNL1        0.0000
     11 H          14.4656   13.4781    0.6632 H       1  UNL1        0.0000
     12 C          12.6827   11.6405    1.2367 C.3     1  UNL1        0.0000
     13 H          11.7516   12.0230    0.8195 H       1  UNL1        0.0000
     14 H          12.4842   10.6753    1.6885 H       1  UNL1        0.0000
     15 H          13.3846   11.4873    0.4163 H       1  UNL1        0.0000
     16 C          11.2736   11.8011    4.7293 C.3     1  UNL1        0.0000
     17 C           9.8366   12.0783    5.1862 C.3     1  UNL1        0.0000
     18 H           9.4467   11.2235    5.7398 H       1  UNL1        0.0000
     19 H           9.7824   12.9466    5.8337 H       1  UNL1        0.0000
     20 H           9.1958   12.2463    4.3181 H       1  UNL1        0.0000
     21 C          12.1792   11.6878    5.9561 C.3     1  UNL1        0.0000
     22 H          13.2057   11.4828    5.6637 H       1  UNL1        0.0000
     23 H          12.1700   12.6050    6.5383 H       1  UNL1        0.0000
     24 H          11.8408   10.8770    6.6016 H       1  UNL1        0.0000
     25 C          11.2375   10.4387    4.0294 C.3     1  UNL1        0.0000
     26 H          12.2336   10.1008    3.7600 H       1  UNL1        0.0000
     27 H          10.6232   10.4918    3.1322 H       1  UNL1        0.0000
     28 H          10.8048    9.6900    4.6944 H       1  UNL1        0.0000
     29 C          12.1408   14.9662    4.2961 C.3     1  UNL1        0.0000
     30 C          11.0816   15.2492    5.3655 C.3     1  UNL1        0.0000
     31 H          10.0861   15.1570    4.9382 H       1  UNL1        0.0000
     32 H          11.1741   14.5724    6.2099 H       1  UNL1        0.0000
     33 H          11.1945   16.2661    5.7432 H       1  UNL1        0.0000
     34 C          13.5201   15.0909    4.9437 C.3     1  UNL1        0.0000
     35 H          13.6320   16.0721    5.4052 H       1  UNL1        0.0000
     36 H          14.3127   14.9744    4.2102 H       1  UNL1        0.0000
     37 H          13.6572   14.3361    5.7137 H       1  UNL1        0.0000
     38 C          11.9774   16.0597    3.2325 C.3     1  UNL1        0.0000
     39 H          11.0386   15.9207    2.6928 H       1  UNL1        0.0000
     40 H          12.7904   16.0500    2.5152 H       1  UNL1        0.0000
     41 H          11.9604   17.0413    3.7069 H       1  UNL1        0.0000
@<TRIPOS>BOND
     1    15    12    1
     2    11     8    1
     3    13    12    1
     4     9     8    1
     5    12    14    1
     6    12     3    1
     7     8    10    1
     8     8     3    1
     9     5     4    1
    10     3     4    1
    11     3     1    1
    12    40    38    1
    13     2     1    1
    14    39    38    1
    15     4     6    1
    16     4     7    1
    17    27    25    1
    18    38    41    1
    19    38    29    1
    20     1    29    1
    21     1    16    1
    22    26    25    1
    23    25    28    1
    24    25    16    1
    25    36    34    1
    26    29    34    1
    27    29    30    1
    28    20    17    1
    29    16    17    1
    30    16    21    1
    31    31    30    1
    32    34    35    1
    33    34    37    1
    34    17    18    1
    35    17    19    1
    36    30    33    1
    37    30    32    1
    38    22    21    1
    39    21    23    1
    40    21    24    1
