@<TRIPOS>MOLECULE
3
 41 40 0 0 0
SMALL
GASTEIGER

@<TRIPOS>ATOM
      1 C          19.7890    7.7596   14.6578 C.3     1  UNL1        0.0000
      2 SI         20.7950    6.1749   14.0683 Si      1  UNL1        0.0000
      3 O          20.3980    6.0123   12.5306 O.3     1  UNL1        0.0000
      4 C          19.9121    8.8557   13.5927 C.3     1  UNL1        0.0000
      5 H          19.1700    9.6363   13.7655 H       1  UNL1        0.0000
      6 H          19.7550    8.4312   12.6017 H       1  UNL1        0.0000
      7 H          20.8922    9.3189   13.6072 H       1  UNL1        0.0000
      8 C          18.2997    7.4223   14.7715 C.3     1  UNL1        0.0000
      9 H          17.7160    8.3303   14.9327 H       1  UNL1        0.0000
     10 H          18.1063    6.7554   15.6068 H       1  UNL1        0.0000
     11 H          17.9470    6.9502   13.8584 H       1  UNL1        0.0000
     12 C          20.2493    8.3251   16.0012 C.3     1  UNL1        0.0000
     13 H          19.6221    9.1712   16.2850 H       1  UNL1        0.0000
     14 H          21.2762    8.6756   15.9498 H       1  UNL1        0.0000
     15 H          20.1831    7.5768   16.7862 H       1  UNL1        0.0000
     16 C          20.2036    4.5142   14.9380 C.3     1  UNL1        0.0000
     17 C          18.8555    4.0853   14.3515 C.3     1  UNL1        0.0000
     18 H          18.5812    3.0928   14.7120 H       1  UNL1        0.0000
     19 H          18.9178    4.0505   13.2652 H       1  UNL1        0.0000
     20 H          18.0585    4.7681   14.6247 H       1  UNL1        0.0000
     21 C          21.1788    3.3689   14.6545 C.3     1  UNL1        0.0000
     22 H          20.7708    2.4308   15.0345 H       1  UNL1        0.0000
     23 H          22.1353    3.5319   15.1419 H       1  UNL1        0.0000
     24 H          21.3397    3.2597   13.5855 H       1  UNL1        0.0000
     25 C          20.0700    4.6491   16.4546 C.3     1  UNL1        0.0000
     26 H          19.7855    3.6915   16.8924 H       1  UNL1        0.0000
     27 H          19.3084    5.3755   16.7220 H       1  UNL1        0.0000
     28 H          21.0097    4.9602   16.9029 H       1  UNL1        0.0000
     29 C          22.7380    6.4410   14.1676 C.3     1  UNL1        0.0000
     30 C          23.4584    5.4325   13.2678 C.3     1  UNL1        0.0000
     31 H          24.5147    5.6913   13.1809 H       1  UNL1        0.0000
     32 H          23.0231    5.4499   12.2731 H       1  UNL1        0.0000
     33 H          23.3941    4.4216   13.6534 H       1  UNL1        0.0000
     34 C          23.2940    6.3113   15.5861 C.3     1  UNL1        0.0000
     35 H          24.3653    6.5154   15.5882 H       1  UNL1        0.0000
     36 H          23.1461    5.3081   15.9759 H       1  UNL1        0.0000
     37 H          22.8148    7.0124   16.2634 H       1  UNL1        0.0000
     38 C          23.1127    7.8270   13.6330 C.3     1  UNL1        0.0000
     39 H          24.1964    7.9149   13.5391 H       1  UNL1        0.0000
     40 H          22.7767    8.6135   14.3018 H       1  UNL1        0.0000
     41 H          22.6769    7.9852   12.6495 H       1  UNL1        0.0000
@<TRIPOS>BOND
     1    32    30    1
     2     3     2    1
     3     6     4    1
     4    41    38    1
     5    31    30    1
     6    19    17    1
     7    30    33    1
     8    30    29    1
     9    39    38    1
    10    24    21    1
    11     4     7    1
    12     4     5    1
    13     4     1    1
    14    38    29    1
    15    38    40    1
    16    11     8    1
    17     2    29    1
    18     2     1    1
    19     2    16    1
    20    29    34    1
    21    17    20    1
    22    17    18    1
    23    17    16    1
    24    21    16    1
    25    21    22    1
    26    21    23    1
    27     1     8    1
    28     1    12    1
    29     8     9    1
    30     8    10    1
    31    16    25    1
    32    34    35    1
    33    34    36    1
    34    34    37    1
    35    14    12    1
    36    12    13    1
    37    12    15    1
    38    25    27    1
    39    25    26    1
    40    25    28    1
