@<TRIPOS>MOLECULE
1
 24 25 0 0 0
SMALL
GASTEIGER

@<TRIPOS>ATOM
      1 O          18.1428    5.9850   11.3066 O.3     1  UNL1       -0.2135
      2 C          16.9234    5.8404   11.6165 C.3     1  UNL1        0.1942
      3 C          16.0350    6.9955   11.6427 C.ar    1  UNL1       -0.0048
      4 C          14.6453    6.8630   11.5269 C.ar    1  UNL1       -0.0553
      5 H          14.2057    5.8823   11.4324 H       1  UNL1        0.0621
      6 C          13.8396    7.9829   11.4873 C.ar    1  UNL1       -0.0614
      7 H          12.7696    7.8665   11.3948 H       1  UNL1        0.0618
      8 C          14.3925    9.2528   11.5530 C.ar    1  UNL1       -0.0617
      9 H          13.7553   10.1239   11.5236 H       1  UNL1        0.0618
     10 C          15.7694    9.3971   11.6375 C.ar    1  UNL1       -0.0614
     11 H          16.2078   10.3836   11.6693 H       1  UNL1        0.0618
     12 C          16.5833    8.2852   11.6741 C.ar    1  UNL1       -0.0553
     13 H          17.6568    8.3942   11.7308 H       1  UNL1        0.0621
     14 C          16.4460    4.4795   11.8910 C.ar    1  UNL1       -0.0048
     15 C          17.0343    3.4061   11.2140 C.ar    1  UNL1       -0.0553
     16 H          17.7899    3.6137   10.4659 H       1  UNL1        0.0621
     17 C          16.6448    2.1104   11.4834 C.ar    1  UNL1       -0.0614
     18 H          17.0968    1.2904   10.9451 H       1  UNL1        0.0618
     19 C          15.6747    1.8598   12.4420 C.ar    1  UNL1       -0.0617
     20 H          15.3702    0.8456   12.6532 H       1  UNL1        0.0618
     21 C          15.1051    2.9149   13.1372 C.ar    1  UNL1       -0.0614
     22 H          14.3656    2.7204   13.9000 H       1  UNL1        0.0618
     23 C          15.4843    4.2161   12.8698 C.ar    1  UNL1       -0.0553
     24 H          15.0647    5.0297   13.4421 H       1  UNL1        0.0621
@<TRIPOS>BOND
     1    16    15    1
     2    18    17    1
     3    15    17   ar
     4    15    14   ar
     5     1     2    1
     6     7     6    1
     7     5     4    1
     8    17    19   ar
     9     6     4   ar
    10     6     8   ar
    11     9     8    1
    12     4     3   ar
    13     8    10   ar
    14     2     3    1
    15     2    14    1
    16    10    11    1
    17    10    12   ar
    18     3    12   ar
    19    12    13    1
    20    14    23   ar
    21    19    20    1
    22    19    21   ar
    23    23    21   ar
    24    23    24    1
    25    21    22    1
