@<TRIPOS>MOLECULE
3
 41 40 0 0 0
SMALL
GASTEIGER

@<TRIPOS>ATOM
      1 C          19.6765    7.7592    6.8574 C.3     1  UNL1        0.0000
      2 SI         18.6706    6.1745    7.4471 Si      1  UNL1        0.0000
      3 O          19.0674    6.0119    8.9849 O.3     1  UNL1        0.0000
      4 C          19.5536    8.8553    7.9226 C.3     1  UNL1        0.0000
      5 H          20.2958    9.6358    7.7500 H       1  UNL1        0.0000
      6 H          19.7105    8.4306    8.9136 H       1  UNL1        0.0000
      7 H          18.5735    9.3186    7.9081 H       1  UNL1        0.0000
      8 C          21.1658    7.4221    6.7436 C.3     1  UNL1        0.0000
      9 H          21.7497    8.3300    6.5827 H       1  UNL1        0.0000
     10 H          21.3593    6.7552    5.9083 H       1  UNL1        0.0000
     11 H          21.5183    6.9498    7.6567 H       1  UNL1        0.0000
     12 C          19.2166    8.3250    5.5140 C.3     1  UNL1        0.0000
     13 H          19.8438    9.1711    5.2302 H       1  UNL1        0.0000
     14 H          18.1898    8.6756    5.5655 H       1  UNL1        0.0000
     15 H          19.2827    7.5768    4.7290 H       1  UNL1        0.0000
     16 C          19.2616    4.5141    6.5768 C.3     1  UNL1        0.0000
     17 C          20.6097    4.0849    7.1634 C.3     1  UNL1        0.0000
     18 H          20.8839    3.0924    6.8029 H       1  UNL1        0.0000
     19 H          20.5472    4.0500    8.2498 H       1  UNL1        0.0000
     20 H          21.4067    4.7677    6.8905 H       1  UNL1        0.0000
     21 C          18.2865    3.3687    6.8601 C.3     1  UNL1        0.0000
     22 H          18.6944    2.4307    6.4799 H       1  UNL1        0.0000
     23 H          17.3301    3.5320    6.3726 H       1  UNL1        0.0000
     24 H          18.1254    3.2594    7.9291 H       1  UNL1        0.0000
     25 C          19.3956    4.6491    5.0602 C.3     1  UNL1        0.0000
     26 H          19.6801    3.6915    4.6222 H       1  UNL1        0.0000
     27 H          20.1573    5.3755    4.7931 H       1  UNL1        0.0000
     28 H          18.4560    4.9604    4.6121 H       1  UNL1        0.0000
     29 C          16.7276    6.4408    7.3474 C.3     1  UNL1        0.0000
     30 C          16.0069    5.4322    8.2469 C.3     1  UNL1        0.0000
     31 H          14.9507    5.6913    8.3340 H       1  UNL1        0.0000
     32 H          16.4424    5.4492    9.2415 H       1  UNL1        0.0000
     33 H          16.0710    4.4215    7.8610 H       1  UNL1        0.0000
     34 C          16.1712    6.3117    5.9290 C.3     1  UNL1        0.0000
     35 H          15.0998    6.5157    5.9268 H       1  UNL1        0.0000
     36 H          16.3192    5.3086    5.5390 H       1  UNL1        0.0000
     37 H          16.6504    7.0129    5.2519 H       1  UNL1        0.0000
     38 C          16.3528    7.8266    7.8823 C.3     1  UNL1        0.0000
     39 H          15.2692    7.9147    7.9762 H       1  UNL1        0.0000
     40 H          16.6890    8.6133    7.2137 H       1  UNL1        0.0000
     41 H          16.7887    7.9845    8.8658 H       1  UNL1        0.0000
@<TRIPOS>BOND
     1    28    25    1
     2    26    25    1
     3    15    12    1
     4    27    25    1
     5    25    16    1
     6    13    12    1
     7    37    34    1
     8    12    14    1
     9    12     1    1
    10    36    34    1
    11    10     8    1
    12    35    34    1
    13    34    29    1
    14    23    21    1
    15    22    21    1
    16    16    21    1
    17    16    17    1
    18    16     2    1
    19     9     8    1
    20     8     1    1
    21     8    11    1
    22    18    17    1
    23     1     2    1
    24     1     4    1
    25    21    24    1
    26    20    17    1
    27    17    19    1
    28    40    38    1
    29    29     2    1
    30    29    38    1
    31    29    30    1
    32     2     3    1
    33     5     4    1
    34    33    30    1
    35    38    39    1
    36    38    41    1
    37     7     4    1
    38     4     6    1
    39    30    31    1
    40    30    32    1
