@<TRIPOS>MOLECULE
1
 24 25 0 0 0
SMALL
GASTEIGER

@<TRIPOS>ATOM
      1 O          21.3227    5.9859   10.2096 O.3     1  UNL1       -0.2135
      2 C          22.5420    5.8412    9.8993 C.3     1  UNL1        0.1942
      3 C          23.4304    6.9962    9.8725 C.ar    1  UNL1       -0.0048
      4 C          24.8202    6.8635    9.9881 C.ar    1  UNL1       -0.0553
      5 H          25.2595    5.8828   10.0835 H       1  UNL1        0.0621
      6 C          25.6260    7.9832   10.0278 C.ar    1  UNL1       -0.0614
      7 H          26.6959    7.8667   10.1207 H       1  UNL1        0.0618
      8 C          25.0732    9.2532    9.9621 C.ar    1  UNL1       -0.0617
      9 H          25.7106   10.1242    9.9912 H       1  UNL1        0.0618
     10 C          23.6964    9.3977    9.8778 C.ar    1  UNL1       -0.0614
     11 H          23.2582   10.3843    9.8455 H       1  UNL1        0.0618
     12 C          22.8823    8.2860    9.8415 C.ar    1  UNL1       -0.0553
     13 H          21.8088    8.3951    9.7844 H       1  UNL1        0.0621
     14 C          23.0191    4.4802    9.6244 C.ar    1  UNL1       -0.0048
     15 C          22.4309    3.4069   10.3017 C.ar    1  UNL1       -0.0553
     16 H          21.6750    3.6147   11.0495 H       1  UNL1        0.0621
     17 C          22.8201    2.1111   10.0324 C.ar    1  UNL1       -0.0614
     18 H          22.3675    1.2913   10.5704 H       1  UNL1        0.0618
     19 C          23.7900    1.8602    9.0736 C.ar    1  UNL1       -0.0617
     20 H          24.0942    0.8460    8.8624 H       1  UNL1        0.0618
     21 C          24.3596    2.9152    8.3783 C.ar    1  UNL1       -0.0614
     22 H          25.0996    2.7205    7.6159 H       1  UNL1        0.0618
     23 C          23.9806    4.2165    8.6455 C.ar    1  UNL1       -0.0553
     24 H          24.4009    5.0300    8.0737 H       1  UNL1        0.0621
@<TRIPOS>BOND
     1    22    21    1
     2    24    23    1
     3    21    23   ar
     4    21    19   ar
     5    23    14   ar
     6    20    19    1
     7    19    17   ar
     8    14     2    1
     9    14    15   ar
    10    13    12    1
    11    12     3   ar
    12    12    10   ar
    13    11    10    1
    14     3     2    1
    15     3     4   ar
    16    10     8   ar
    17     2     1    1
    18     8     9    1
    19     8     6   ar
    20     4     6   ar
    21     4     5    1
    22     6     7    1
    23    17    15   ar
    24    17    18    1
    25    15    16    1
