@<TRIPOS>MOLECULE
2
 12 12 0 0 0
SMALL
GASTEIGER

@<TRIPOS>ATOM
      1 F          -1.9688    0.6514   -1.2988 F       1  UNL1       -0.2055
      2 O           2.3921    2.9053    1.0391 O.3     1  UNL1       -0.2879
      3 C           1.3262    2.3520    0.4730 C.ar    1  UNL1        0.1792
      4 C           1.4693    1.2353   -0.3566 C.ar    1  UNL1       -0.0122
      5 C           0.3615    0.6591   -0.9470 C.ar    1  UNL1       -0.0228
      6 C          -0.8858    1.2093   -0.7133 C.ar    1  UNL1        0.1236
      7 C          -1.0553    2.3172    0.0980 C.ar    1  UNL1       -0.0228
      8 C           0.0532    2.8875    0.6917 C.ar    1  UNL1       -0.0122
      9 H           2.4581    0.8269   -0.5147 H       1  UNL1        0.0657
     10 H           0.4556   -0.2074   -1.5821 H       1  UNL1        0.0647
     11 H          -2.0435    2.7168    0.2611 H       1  UNL1        0.0647
     12 H          -0.0411    3.7583    1.3306 H       1  UNL1        0.0657
@<TRIPOS>BOND
     1    10     5    1
     2     1     6    1
     3     5     6   ar
     4     5     4   ar
     5     6     7   ar
     6     9     4    1
     7     4     3   ar
     8     7    11    1
     9     7     8   ar
    10     3     8   ar
    11     3     2    1
    12     8    12    1
