@<TRIPOS>MOLECULE
1
 13 13 0 0 0
SMALL
GASTEIGER

@<TRIPOS>ATOM
      1 O           2.1302   13.1680    8.0579 O.3     1  UNL1       -0.3798
      2 C           2.5775   11.8120    8.0564 C.3     1  UNL1        0.0477
      3 H           3.1032   11.6357    8.9957 H       1  UNL1        0.0560
      4 H           3.2585   11.6452    7.2109 H       1  UNL1        0.0560
      5 C           1.3025   10.9903    7.8890 C.3     1  UNL1       -0.0274
      6 H           0.7919   10.9022    8.8468 H       1  UNL1        0.0288
      7 H           1.5001    9.9939    7.5019 H       1  UNL1        0.0288
      8 C           0.4870   11.8529    6.9186 C.3     1  UNL1       -0.0274
      9 H          -0.5714   11.8513    7.1692 H       1  UNL1        0.0288
     10 H           0.5934   11.4939    5.8959 H       1  UNL1        0.0288
     11 C           1.1049   13.2572    7.0626 C.3     1  UNL1        0.0477
     12 H           1.5449   13.5900    6.1148 H       1  UNL1        0.0560
     13 H           0.3896   14.0091    7.4035 H       1  UNL1        0.0560
@<TRIPOS>BOND
     1    10     8    1
     2    12    11    1
     3     8    11    1
     4     8     9    1
     5     8     5    1
     6    11    13    1
     7    11     1    1
     8     4     2    1
     9     7     5    1
    10     5     2    1
    11     5     6    1
    12     2     1    1
    13     2     3    1
