@<TRIPOS>MOLECULE
2
 37 38 0 0 0
SMALL
GASTEIGER

@<TRIPOS>ATOM
      1 SI          3.1130    1.6920   17.4080 Si      1  UNL1        0.0000
      2 O           2.0339    1.9954   16.2665 O.3     1  UNL1        0.0000
      3 C           5.9695    2.3432   17.4695 C.ar    1  UNL1        0.0000
      4 H           6.0508    1.6510   18.2945 H       1  UNL1        0.0000
      5 C           3.2978   -0.2022   17.4551 C.ar    1  UNL1        0.0000
      6 C           4.2720   -2.2713   18.2291 C.ar    1  UNL1        0.0000
      7 H           4.9696   -2.7893   18.8740 H       1  UNL1        0.0000
      8 C           2.5026   -0.9402   16.5800 C.ar    1  UNL1        0.0000
      9 H           1.8074   -0.4126   15.9209 H       1  UNL1        0.0000
     10 C           4.7265    2.5743   16.8929 C.ar    1  UNL1        0.0000
     11 C           2.4342    2.4269   19.0544 C.3     1  UNL1        0.0000
     12 C           1.0992    1.7631   19.3879 C.3     1  UNL1        0.0000
     13 H           1.2325    0.6943   19.5459 H       1  UNL1        0.0000
     14 H           0.3985    1.9016   18.5679 H       1  UNL1        0.0000
     15 H           0.6661    2.1959   20.2913 H       1  UNL1        0.0000
     16 C           4.1816   -0.8912   18.2767 C.ar    1  UNL1        0.0000
     17 H           4.8128   -0.3413   18.9597 H       1  UNL1        0.0000
     18 C           3.4090    2.2005   20.2038 C.3     1  UNL1        0.0000
     19 H           3.0254    2.6432   21.1243 H       1  UNL1        0.0000
     20 H           4.3731    2.6532   19.9836 H       1  UNL1        0.0000
     21 H           3.5557    1.1367   20.3745 H       1  UNL1        0.0000
     22 C           7.1076    2.9701   16.9914 C.ar    1  UNL1        0.0000
     23 H           8.0668    2.7675   17.4487 H       1  UNL1        0.0000
     24 C           2.2138    3.9284   18.8678 C.3     1  UNL1        0.0000
     25 H           1.5603    4.1106   18.0167 H       1  UNL1        0.0000
     26 H           3.1604    4.4342   18.6838 H       1  UNL1        0.0000
     27 H           1.7554    4.3661   19.7560 H       1  UNL1        0.0000
     28 C           3.4776   -2.9881   17.3511 C.ar    1  UNL1        0.0000
     29 H           3.5543   -4.0660   17.3072 H       1  UNL1        0.0000
     30 C           2.5896   -2.3189   16.5252 C.ar    1  UNL1        0.0000
     31 H           1.9711   -2.8689   15.8308 H       1  UNL1        0.0000
     32 C           7.0232    3.8431   15.9213 C.ar    1  UNL1        0.0000
     33 H           7.9135    4.3232   15.5395 H       1  UNL1        0.0000
     34 C           4.6622    3.4642   15.8213 C.ar    1  UNL1        0.0000
     35 H           3.6894    3.6827   15.3612 H       1  UNL1        0.0000
     36 C           5.7929    4.0946   15.3358 C.ar    1  UNL1        0.0000
     37 H           5.7154    4.7697   14.4955 H       1  UNL1        0.0000
@<TRIPOS>BOND
     1    37    36    1
     2    36    34   ar
     3    36    32   ar
     4    35    34    1
     5    33    32    1
     6    34    10   ar
     7    31    30    1
     8     9     8    1
     9    32    22   ar
    10     2     1    1
    11    30     8   ar
    12    30    28   ar
    13     8     5   ar
    14    10     1    1
    15    10     3   ar
    16    22    23    1
    17    22     3   ar
    18    29    28    1
    19    28     6   ar
    20     1     5    1
    21     1    11    1
    22     5    16   ar
    23     3     4    1
    24    25    24    1
    25     6    16   ar
    26     6     7    1
    27    16    17    1
    28    14    12    1
    29    26    24    1
    30    24    11    1
    31    24    27    1
    32    11    12    1
    33    11    18    1
    34    12    13    1
    35    12    15    1
    36    20    18    1
    37    18    21    1
    38    18    19    1
