@<TRIPOS>MOLECULE
1
 35 37 0 0 0
SMALL
GASTEIGER

@<TRIPOS>ATOM
      1 O          12.4699   11.2020   16.1558 O.3     1  UNL1        0.0000
      2 SI         11.5451   11.1831   17.4581 Si      1  UNL1        0.0000
      3 C          12.6580   11.0478   18.9879 C.ar    1  UNL1        0.0000
      4 C          12.1889   10.5327   20.1886 C.ar    1  UNL1        0.0000
      5 H          11.1757   10.1622   20.2432 H       1  UNL1        0.0000
      6 C          13.0015   10.4744   21.3066 C.ar    1  UNL1        0.0000
      7 H          12.6202   10.0681   22.2341 H       1  UNL1        0.0000
      8 C          14.3060   10.9342   21.2384 C.ar    1  UNL1        0.0000
      9 H          14.9436   10.8889   22.1112 H       1  UNL1        0.0000
     10 C          14.7909   11.4470   20.0470 C.ar    1  UNL1        0.0000
     11 H          15.8101   11.8036   19.9876 H       1  UNL1        0.0000
     12 C          13.9709   11.5031   18.9345 C.ar    1  UNL1        0.0000
     13 H          14.3465   11.8980   18.0012 H       1  UNL1        0.0000
     14 C          10.6050   12.8429   17.5424 C.ar    1  UNL1        0.0000
     15 C           9.7771   13.1994   18.6011 C.ar    1  UNL1        0.0000
     16 H           9.6723   12.5252   19.4391 H       1  UNL1        0.0000
     17 C           9.0922   14.4015   18.5981 C.ar    1  UNL1        0.0000
     18 H           8.4462   14.6575   19.4273 H       1  UNL1        0.0000
     19 C           9.2284   15.2754   17.5329 C.ar    1  UNL1        0.0000
     20 H           8.6867   16.2111   17.5255 H       1  UNL1        0.0000
     21 C          10.0634   14.9481   16.4774 C.ar    1  UNL1        0.0000
     22 H          10.1800   15.6243   15.6428 H       1  UNL1        0.0000
     23 C          10.7427   13.7442   16.4911 C.ar    1  UNL1        0.0000
     24 H          11.4051   13.4897   15.6474 H       1  UNL1        0.0000
     25 C          10.3789    9.6939   17.2644 C.ar    1  UNL1        0.0000
     26 C          10.6194    8.8242   16.2018 C.ar    1  UNL1        0.0000
     27 H          11.4663    9.0167   15.5385 H       1  UNL1        0.0000
     28 C           9.7957    7.7384   15.9696 C.ar    1  UNL1        0.0000
     29 H           9.9925    7.0837   15.1330 H       1  UNL1        0.0000
     30 C           8.7125    7.5034   16.8002 C.ar    1  UNL1        0.0000
     31 H           8.0610    6.6596   16.6174 H       1  UNL1        0.0000
     32 C           8.4593    8.3582   17.8589 C.ar    1  UNL1        0.0000
     33 H           7.6091    8.1826   18.5048 H       1  UNL1        0.0000
     34 C           9.2856    9.4450   18.0843 C.ar    1  UNL1        0.0000
     35 H           9.0682   10.1188   18.9011 H       1  UNL1        0.0000
@<TRIPOS>BOND
     1    29    28    1
     2    27    26    1
     3    22    21    1
     4    24    23    1
     5    28    26   ar
     6    28    30   ar
     7     1     2    1
     8    26    25   ar
     9    21    23   ar
    10    21    19   ar
    11    23    14   ar
    12    31    30    1
    13    30    32   ar
    14    25     2    1
    15    25    34   ar
    16     2    14    1
    17     2     3    1
    18    20    19    1
    19    19    17   ar
    20    14    15   ar
    21    32    34   ar
    22    32    33    1
    23    13    12    1
    24    34    35    1
    25    17    15   ar
    26    17    18    1
    27    15    16    1
    28    12     3   ar
    29    12    10   ar
    30     3     4   ar
    31    11    10    1
    32    10     8   ar
    33     4     5    1
    34     4     6   ar
    35     8     6   ar
    36     8     9    1
    37     6     7    1
