@<TRIPOS>MOLECULE
1
 13 13 0 0 0
SMALL
GASTEIGER

@<TRIPOS>ATOM
      1 O          13.7811    7.9767    5.7132 O.3     1  UNL1       -0.3798
      2 C          14.8140    8.4407    6.6017 C.3     1  UNL1        0.0477
      3 H          15.4221    7.5724    6.8730 H       1  UNL1        0.0560
      4 H          14.3469    8.8565    7.4992 H       1  UNL1        0.0560
      5 C          15.6296    9.4904    5.8432 C.3     1  UNL1       -0.0274
      6 H          16.6888    9.4350    6.0823 H       1  UNL1        0.0288
      7 H          15.2637   10.4903    6.0780 H       1  UNL1        0.0288
      8 C          15.3269    9.1500    4.3867 C.3     1  UNL1       -0.0274
      9 H          15.4659    9.9909    3.7123 H       1  UNL1        0.0288
     10 H          15.9433    8.3146    4.0534 H       1  UNL1        0.0288
     11 C          13.8702    8.7189    4.4930 C.3     1  UNL1        0.0477
     12 H          13.2147    9.5976    4.5563 H       1  UNL1        0.0560
     13 H          13.5368    8.0703    3.6821 H       1  UNL1        0.0560
@<TRIPOS>BOND
     1    13    11    1
     2     9     8    1
     3    10     8    1
     4     8    11    1
     5     8     5    1
     6    11    12    1
     7    11     1    1
     8     1     2    1
     9     5     7    1
    10     5     6    1
    11     5     2    1
    12     2     3    1
    13     2     4    1
