@<TRIPOS>MOLECULE
1
 13 13 0 0 0
SMALL
GASTEIGER

@<TRIPOS>ATOM
      1 O          10.7547    4.0855    6.7930 O.3     1  UNL1       -0.3798
      2 C          11.1755    2.7351    7.0230 C.3     1  UNL1        0.0477
      3 H          12.1840    2.7662    7.4355 H       1  UNL1        0.0560
      4 H          11.1850    2.1921    6.0691 H       1  UNL1        0.0560
      5 C          10.1362    2.1403    7.9639 C.3     1  UNL1       -0.0274
      6 H          10.1261    1.0539    7.9383 H       1  UNL1        0.0288
      7 H          10.3159    2.4750    8.9861 H       1  UNL1        0.0288
      8 C           8.8587    2.7655    7.4110 C.3     1  UNL1       -0.0274
      9 H           8.0541    2.8116    8.1408 H       1  UNL1        0.0288
     10 H           8.5186    2.2062    6.5392 H       1  UNL1        0.0288
     11 C           9.3326    4.1576    6.9880 C.3     1  UNL1        0.0477
     12 H           8.8652    4.4816    6.0536 H       1  UNL1        0.0560
     13 H           9.1442    4.9035    7.7675 H       1  UNL1        0.0560
@<TRIPOS>BOND
     1    12    11    1
     2     4     2    1
     3    10     8    1
     4     1    11    1
     5     1     2    1
     6    11     8    1
     7    11    13    1
     8     2     3    1
     9     2     5    1
    10     8     5    1
    11     8     9    1
    12     6     5    1
    13     5     7    1
