@<TRIPOS>MOLECULE
1
 13 13 0 0 0
SMALL
GASTEIGER

@<TRIPOS>ATOM
      1 O           9.0547    5.0760    3.5684 O.3     1  UNL1       -0.3798
      2 C           9.7701    6.2363    4.0042 C.3     1  UNL1        0.0477
      3 H          10.7934    6.1987    3.6075 H       1  UNL1        0.0560
      4 H           9.8162    6.2210    5.0948 H       1  UNL1        0.0560
      5 C           9.0137    7.4355    3.4468 C.3     1  UNL1       -0.0274
      6 H           9.6453    8.3154    3.3528 H       1  UNL1        0.0288
      7 H           8.1577    7.6659    4.0804 H       1  UNL1        0.0288
      8 C           8.5368    6.8875    2.1052 C.3     1  UNL1       -0.0274
      9 H           7.6650    7.4098    1.7196 H       1  UNL1        0.0288
     10 H           9.3372    6.9403    1.3660 H       1  UNL1        0.0288
     11 C           8.2165    5.4361    2.4564 C.3     1  UNL1        0.0477
     12 H           7.1716    5.3372    2.7708 H       1  UNL1        0.0560
     13 H           8.4131    4.7436    1.6328 H       1  UNL1        0.0560
@<TRIPOS>BOND
     1    10     8    1
     2    13    11    1
     3     9     8    1
     4     8    11    1
     5     8     5    1
     6    11    12    1
     7    11     1    1
     8     6     5    1
     9     5     2    1
    10     5     7    1
    11     1     2    1
    12     3     2    1
    13     2     4    1
