@<TRIPOS>MOLECULE
1
 13 13 0 0 0
SMALL
GASTEIGER

@<TRIPOS>ATOM
      1 O           3.5685    1.6605    6.7336 O.3     1  UNL1       -0.3798
      2 C           2.3956    1.5448    7.5294 C.3     1  UNL1        0.0477
      3 H           2.0181    0.5265    7.4359 H       1  UNL1        0.0560
      4 H           1.6375    2.2531    7.1638 H       1  UNL1        0.0560
      5 C           2.8478    1.9228    8.9432 C.3     1  UNL1       -0.0274
      6 H           3.2463    1.0446    9.4497 H       1  UNL1        0.0288
      7 H           2.0325    2.3318    9.5354 H       1  UNL1        0.0288
      8 C           3.9667    2.9468    8.6830 C.3     1  UNL1       -0.0274
      9 H           3.6821    3.9510    8.9918 H       1  UNL1        0.0288
     10 H           4.8771    2.6715    9.2109 H       1  UNL1        0.0288
     11 C           4.1688    2.8788    7.1588 C.3     1  UNL1        0.0477
     12 H           3.6599    3.7222    6.6696 H       1  UNL1        0.0560
     13 H           5.2137    2.8640    6.8490 H       1  UNL1        0.0560
@<TRIPOS>BOND
     1    12    11    1
     2     1    11    1
     3     1     2    1
     4    13    11    1
     5    11     8    1
     6     4     2    1
     7     3     2    1
     8     2     5    1
     9     8     5    1
    10     8     9    1
    11     8    10    1
    12     5     6    1
    13     5     7    1
