@<TRIPOS>MOLECULE
1
 13 13 0 0 0
SMALL
GASTEIGER

@<TRIPOS>ATOM
      1 O           6.8063   -2.2614    4.8653 O.3     1  UNL1       -0.3798
      2 C           6.6243   -3.6870    4.9035 C.3     1  UNL1        0.0477
      3 H           5.8486   -3.9418    4.1730 H       1  UNL1        0.0560
      4 H           6.2818   -3.9755    5.9019 H       1  UNL1        0.0560
      5 C           7.9696   -4.3223    4.5445 C.3     1  UNL1       -0.0274
      6 H           8.5352   -4.5502    5.4483 H       1  UNL1        0.0288
      7 H           7.8486   -5.2360    3.9676 H       1  UNL1        0.0288
      8 C           8.6586   -3.2063    3.7630 C.3     1  UNL1       -0.0274
      9 H           9.7426   -3.2856    3.7664 H       1  UNL1        0.0288
     10 H           8.3047   -3.1863    2.7320 H       1  UNL1        0.0288
     11 C           8.1634   -1.9768    4.5139 C.3     1  UNL1        0.0477
     12 H           8.7545   -1.8161    5.4254 H       1  UNL1        0.0560
     13 H           8.1803   -1.0600    3.9211 H       1  UNL1        0.0560
@<TRIPOS>BOND
     1    10     8    1
     2     8     9    1
     3     8    11    1
     4     8     5    1
     5    13    11    1
     6     7     5    1
     7     3     2    1
     8    11     1    1
     9    11    12    1
    10     5     2    1
    11     5     6    1
    12     1     2    1
    13     2     4    1
