@<TRIPOS>MOLECULE
2
 8 7 0 0 0
SMALL
GASTEIGER

@<TRIPOS>ATOM
      1 S           5.7895   12.9146   10.8819 S.3     1  UNL1        0.1076
      2 O           5.6723   11.4725   11.0209 O.3     1  UNL1       -0.0619
      3 F           6.3701   12.7713   13.4870 F       1  UNL1       -0.1499
      4 F           5.7301   14.7381   12.8787 F       1  UNL1       -0.1499
      5 O           7.0625   13.4457   10.5294 O.3     1  UNL1       -0.0619
      6 F           4.2951   13.1459   13.0629 F       1  UNL1       -0.1499
      7 O           4.6400   13.5091   10.2264 O.3     1  UNL1       -0.0619
      8 C           5.5521   13.4319   12.6717 C.3     1  UNL1        0.5278
@<TRIPOS>BOND
     1     7     1    1
     2     5     1    1
     3     1     2    1
     4     1     8    1
     5     8     4    1
     6     8     6    1
     7     8     3    1
