@<TRIPOS>MOLECULE
2
 8 7 0 0 0
SMALL
GASTEIGER

@<TRIPOS>ATOM
      1 S           7.5234    8.7472   10.7987 S.3     1  UNL1        0.1076
      2 O           6.1592    8.8457   11.3189 O.3     1  UNL1       -0.0619
      3 F           8.3569    9.9482   13.0300 F       1  UNL1       -0.1499
      4 O           8.0499    9.8246   10.0339 O.3     1  UNL1       -0.0619
      5 F           7.9424    7.8486   13.2551 F       1  UNL1       -0.1499
      6 O           7.7803    7.4181   10.2821 O.3     1  UNL1       -0.0619
      7 F           9.7607    8.4858   12.2943 F       1  UNL1       -0.1499
      8 C           8.4616    8.7692   12.4237 C.3     1  UNL1        0.5278
@<TRIPOS>BOND
     1     4     1    1
     2     6     1    1
     3     1     2    1
     4     1     8    1
     5     7     8    1
     6     8     3    1
     7     8     5    1
