@<TRIPOS>MOLECULE
1
 13 13 0 0 0
SMALL
GASTEIGER

@<TRIPOS>ATOM
      1 O          10.6632    6.7109   13.7679 O.3     1  UNL1       -0.3798
      2 C          11.4082    5.5553   14.1455 C.3     1  UNL1        0.0477
      3 H          11.9403    5.1683   13.2640 H       1  UNL1        0.0560
      4 H          10.7122    4.7994   14.5130 H       1  UNL1        0.0560
      5 C          12.4030    6.0256   15.2174 C.3     1  UNL1       -0.0274
      6 H          12.0094    5.8358   16.2137 H       1  UNL1        0.0288
      7 H          13.3575    5.5133   15.1177 H       1  UNL1        0.0288
      8 C          12.5214    7.5370   14.9666 C.3     1  UNL1       -0.0274
      9 H          12.1463    8.0985   15.8197 H       1  UNL1        0.0288
     10 H          13.5455    7.8458   14.7681 H       1  UNL1        0.0288
     11 C          11.6262    7.7621   13.7423 C.3     1  UNL1        0.0477
     12 H          12.2179    7.6827   12.8207 H       1  UNL1        0.0560
     13 H          11.0929    8.7128   13.7659 H       1  UNL1        0.0560
@<TRIPOS>BOND
     1    12    11    1
     2     3     2    1
     3    11    13    1
     4    11     1    1
     5    11     8    1
     6     1     2    1
     7     2     4    1
     8     2     5    1
     9    10     8    1
    10     8     5    1
    11     8     9    1
    12     7     5    1
    13     5     6    1
