@<TRIPOS>MOLECULE
1
 5 4 0 0 0
SMALL
GASTEIGER

@<TRIPOS>ATOM
      1 O           5.4142    5.5344    4.2469 O.3     1  UNL1       -0.2383
      2 C           6.7321    5.1876    4.1640 C.3     1  UNL1        0.0718
      3 H           6.9691    4.4645    4.9642 H       1  UNL1        0.0555
      4 H           7.3727    6.0774    4.2704 H       1  UNL1        0.0555
      5 H           6.9373    4.7232    3.1860 H       1  UNL1        0.0555
@<TRIPOS>BOND
     1     5     2    1
     2     2     1    1
     3     2     4    1
     4     2     3    1
