@<TRIPOS>MOLECULE
1
 13 13 0 0 0
SMALL
GASTEIGER

@<TRIPOS>ATOM
      1 O           6.3595    7.6115    8.1646 O.3     1  UNL1       -0.3798
      2 C           7.4545    7.9395    7.2963 C.3     1  UNL1        0.0477
      3 H           7.1202    8.7399    6.6254 H       1  UNL1        0.0560
      4 H           7.7091    7.0577    6.6999 H       1  UNL1        0.0560
      5 C           6.7475    7.8580    9.5187 C.3     1  UNL1        0.0477
      6 H           7.0975    6.9211    9.9756 H       1  UNL1        0.0560
      7 H           5.8674    8.2135   10.0592 H       1  UNL1        0.0560
      8 C           8.6105    8.4021    8.1860 C.3     1  UNL1       -0.0274
      9 H           9.2670    7.5647    8.4236 H       1  UNL1        0.0288
     10 H           9.1992    9.1862    7.7164 H       1  UNL1        0.0288
     11 C           7.8827    8.8722    9.4436 C.3     1  UNL1       -0.0274
     12 H           7.4850    9.8776    9.3003 H       1  UNL1        0.0288
     13 H           8.5109    8.8616   10.3308 H       1  UNL1        0.0288
@<TRIPOS>BOND
     1     3     2    1
     2     4     2    1
     3     2     1    1
     4     2     8    1
     5    10     8    1
     6     1     5    1
     7     8     9    1
     8     8    11    1
     9    12    11    1
    10    11     5    1
    11    11    13    1
    12     5     6    1
    13     5     7    1
