@<TRIPOS>MOLECULE
1
 13 13 0 0 0
SMALL
GASTEIGER

@<TRIPOS>ATOM
      1 O           1.5641    4.8387    5.3212 O.3     1  UNL1       -0.3798
      2 C           2.4220    3.7135    5.2252 C.3     1  UNL1        0.0477
      3 H           3.3820    4.0123    4.7779 H       1  UNL1        0.0560
      4 H           1.9394    2.9775    4.5804 H       1  UNL1        0.0560
      5 C           2.6464    3.2123    6.6630 C.3     1  UNL1       -0.0274
      6 H           3.6890    2.9432    6.8232 H       1  UNL1        0.0288
      7 H           2.0351    2.3362    6.8726 H       1  UNL1        0.0288
      8 C           2.2176    4.4057    7.5311 C.3     1  UNL1       -0.0274
      9 H           2.9778    4.6888    8.2557 H       1  UNL1        0.0288
     10 H           1.2966    4.1783    8.0642 H       1  UNL1        0.0288
     11 C           1.9647    5.5159    6.5055 C.3     1  UNL1        0.0477
     12 H           1.1548    6.1900    6.7834 H       1  UNL1        0.0560
     13 H           2.8864    6.0830    6.3137 H       1  UNL1        0.0560
@<TRIPOS>BOND
     1     4     2    1
     2     3     2    1
     3     2     1    1
     4     2     5    1
     5     1    11    1
     6    13    11    1
     7    11    12    1
     8    11     8    1
     9     5     6    1
    10     5     7    1
    11     5     8    1
    12     8    10    1
    13     8     9    1
