@<TRIPOS>MOLECULE
1
 14 13 0 0 0
SMALL
GASTEIGER

@<TRIPOS>ATOM
      1 O           4.5708    4.8429   12.4494 O.3     1  UNL1       -0.2285
      2 C           4.7413    6.1710   12.7980 C.3     1  UNL1        0.0962
      3 C           4.1742    7.0733   11.6870 C.3     1  UNL1       -0.0333
      4 C           6.2419    6.4690   12.9843 C.3     1  UNL1       -0.0333
      5 C           3.9931    6.4508   14.1174 C.3     1  UNL1       -0.0333
      6 H           4.3073    8.1244   11.9341 H       1  UNL1        0.0258
      7 H           3.1125    6.8635   11.5561 H       1  UNL1        0.0258
      8 H           4.6892    6.8595   10.7515 H       1  UNL1        0.0258
      9 H           6.3953    7.5137   13.2432 H       1  UNL1        0.0258
     10 H           6.6509    5.8450   13.7772 H       1  UNL1        0.0258
     11 H           6.7728    6.2469   12.0613 H       1  UNL1        0.0258
     12 H           4.0290    7.5088   14.3664 H       1  UNL1        0.0258
     13 H           4.4455    5.8834   14.9305 H       1  UNL1        0.0258
     14 H           2.9549    6.1418   14.0028 H       1  UNL1        0.0258
@<TRIPOS>BOND
     1     8     3    1
     2     7     3    1
     3     3     6    1
     4     3     2    1
     5    11     4    1
     6     1     2    1
     7     2     4    1
     8     2     5    1
     9     4     9    1
    10     4    10    1
    11    14     5    1
    12     5    12    1
    13     5    13    1
