@<TRIPOS>MOLECULE
1
 13 13 0 0 0
SMALL
GASTEIGER

@<TRIPOS>ATOM
      1 O           5.2277    4.1723    5.3595 O.3     1  UNL1       -0.3798
      2 C           5.8307    4.4596    4.0906 C.3     1  UNL1        0.0477
      3 H           6.1501    5.5064    4.0809 H       1  UNL1        0.0560
      4 H           5.0699    4.3105    3.3136 H       1  UNL1        0.0560
      5 C           6.9880    3.4782    3.9076 C.3     1  UNL1       -0.0274
      6 H           7.9150    3.9034    4.2923 H       1  UNL1        0.0288
      7 H           7.1324    3.2062    2.8649 H       1  UNL1        0.0288
      8 C           6.5473    2.3053    4.7795 C.3     1  UNL1       -0.0274
      9 H           5.8183    1.6906    4.2499 H       1  UNL1        0.0288
     10 H           7.3738    1.6793    5.1055 H       1  UNL1        0.0288
     11 C           5.8812    3.0392    5.9373 C.3     1  UNL1        0.0477
     12 H           5.1274    2.4451    6.4581 H       1  UNL1        0.0560
     13 H           6.6309    3.3839    6.6597 H       1  UNL1        0.0560
@<TRIPOS>BOND
     1     7     5    1
     2     4     2    1
     3     5     2    1
     4     5     6    1
     5     5     8    1
     6     3     2    1
     7     2     1    1
     8     9     8    1
     9     8    10    1
    10     8    11    1
    11     1    11    1
    12    11    12    1
    13    11    13    1
