@<TRIPOS>MOLECULE
1
 13 13 0 0 0
SMALL
GASTEIGER

@<TRIPOS>ATOM
      1 O           5.2810   12.0928    2.2424 O.3     1  UNL1       -0.3798
      2 C           5.2477   13.1419    1.2631 C.3     1  UNL1        0.0477
      3 H           6.0945   13.8193    1.4403 H       1  UNL1        0.0560
      4 H           4.3107   13.6930    1.3786 H       1  UNL1        0.0560
      5 C           5.3829   12.4541   -0.0885 C.3     1  UNL1       -0.0274
      6 H           5.7463   13.1252   -0.8624 H       1  UNL1        0.0288
      7 H           4.4231   12.0353   -0.3901 H       1  UNL1        0.0288
      8 C           6.3621   11.3356    0.2539 C.3     1  UNL1       -0.0274
      9 H           6.3241   10.5060   -0.4470 H       1  UNL1        0.0288
     10 H           7.3815   11.7221    0.2908 H       1  UNL1        0.0288
     11 C           5.8865   10.9262    1.6455 C.3     1  UNL1        0.0477
     12 H           5.1174   10.1485    1.5803 H       1  UNL1        0.0560
     13 H           6.6990   10.5874    2.2947 H       1  UNL1        0.0560
@<TRIPOS>BOND
     1     6     5    1
     2     9     8    1
     3     7     5    1
     4     5     8    1
     5     5     2    1
     6     8    10    1
     7     8    11    1
     8     2     4    1
     9     2     3    1
    10     2     1    1
    11    12    11    1
    12    11     1    1
    13    11    13    1
