@<TRIPOS>MOLECULE
2
 35 37 0 0 0
SMALL
GASTEIGER

@<TRIPOS>ATOM
      1 SI         18.4725    4.8415    7.0876 Si      1  UNL1        0.0000
      2 O          17.6163    3.6551    6.4571 O.3     1  UNL1        0.0000
      3 C          19.4876    5.7294    5.7415 C.ar    1  UNL1        0.0000
      4 C          19.7481    7.0949    5.7714 C.ar    1  UNL1        0.0000
      5 H          19.3421    7.6946    6.5734 H       1  UNL1        0.0000
      6 C          20.5108    7.6994    4.7867 C.ar    1  UNL1        0.0000
      7 H          20.7005    8.7631    4.8266 H       1  UNL1        0.0000
      8 C          20.0136    4.9879    4.6886 C.ar    1  UNL1        0.0000
      9 H          19.8134    3.9272    4.6589 H       1  UNL1        0.0000
     10 C          17.2885    6.1028    7.8803 C.ar    1  UNL1        0.0000
     11 C          19.7072    4.2608    8.4138 C.ar    1  UNL1        0.0000
     12 C          20.7759    5.5832    3.6998 C.ar    1  UNL1        0.0000
     13 H          21.1768    4.9895    2.8892 H       1  UNL1        0.0000
     14 C          17.7257    7.0605    8.7898 C.ar    1  UNL1        0.0000
     15 H          18.7687    7.0801    9.0753 H       1  UNL1        0.0000
     16 C          15.0533    7.0067    8.0872 C.ar    1  UNL1        0.0000
     17 H          14.0108    6.9786    7.8079 H       1  UNL1        0.0000
     18 C          16.8492    7.9794    9.3389 C.ar    1  UNL1        0.0000
     19 H          17.2096    8.7165   10.0432 H       1  UNL1        0.0000
     20 C          15.5098    7.9552    8.9872 C.ar    1  UNL1        0.0000
     21 H          14.8231    8.6720    9.4143 H       1  UNL1        0.0000
     22 C          21.0100    3.9224    8.0683 C.ar    1  UNL1        0.0000
     23 H          21.3135    3.9971    7.0346 H       1  UNL1        0.0000
     24 C          19.3464    4.1764    9.7553 C.ar    1  UNL1        0.0000
     25 H          18.3409    4.4459   10.0473 H       1  UNL1        0.0000
     26 C          21.0285    6.9443    3.7476 C.ar    1  UNL1        0.0000
     27 H          21.6232    7.4151    2.9774 H       1  UNL1        0.0000
     28 C          20.2489    3.7564   10.7167 C.ar    1  UNL1        0.0000
     29 H          19.9474    3.6973   11.7534 H       1  UNL1        0.0000
     30 C          21.5386    3.4094   10.3505 C.ar    1  UNL1        0.0000
     31 H          22.2453    3.0776   11.0982 H       1  UNL1        0.0000
     32 C          21.9183    3.4972    9.0219 C.ar    1  UNL1        0.0000
     33 H          22.9266    3.2361    8.7310 H       1  UNL1        0.0000
     34 C          15.9405    6.0956    7.5441 C.ar    1  UNL1        0.0000
     35 H          15.5727    5.3533    6.8357 H       1  UNL1        0.0000
@<TRIPOS>BOND
     1    13    12    1
     2    27    26    1
     3    12    26   ar
     4    12     8   ar
     5    26     6   ar
     6     9     8    1
     7     8     3   ar
     8     6     7    1
     9     6     4   ar
    10     3     4   ar
    11     3     1    1
    12     4     5    1
    13     2     1    1
    14    35    34    1
    15    23    22    1
    16     1    10    1
    17     1    11    1
    18    34    10   ar
    19    34    16   ar
    20    17    16    1
    21    10    14   ar
    22    22    11   ar
    23    22    32   ar
    24    16    20   ar
    25    11    24   ar
    26    33    32    1
    27    14    15    1
    28    14    18   ar
    29    20    18   ar
    30    20    21    1
    31    32    30   ar
    32    18    19    1
    33    24    25    1
    34    24    28   ar
    35    30    28   ar
    36    30    31    1
    37    28    29    1
