@<TRIPOS>MOLECULE
2
 35 37 0 0 0
SMALL
GASTEIGER

@<TRIPOS>ATOM
      1 SI         13.6392    4.8414    4.0792 Si      1  UNL1        0.0000
      2 O          14.4953    3.6549    4.7095 O.3     1  UNL1        0.0000
      3 C          12.6234    5.7280    5.4256 C.ar    1  UNL1        0.0000
      4 C          12.3625    7.0935    5.3958 C.ar    1  UNL1        0.0000
      5 H          12.7684    7.6931    4.5938 H       1  UNL1        0.0000
      6 C          11.6000    7.6977    6.3807 C.ar    1  UNL1        0.0000
      7 H          11.4097    8.7613    6.3407 H       1  UNL1        0.0000
      8 C          12.0980    4.9862    6.4786 C.ar    1  UNL1        0.0000
      9 H          12.2984    3.9257    6.5081 H       1  UNL1        0.0000
     10 C          14.8229    6.1039    3.2880 C.ar    1  UNL1        0.0000
     11 C          12.4054    4.2614    2.7518 C.ar    1  UNL1        0.0000
     12 C          11.3358    5.5814    7.4676 C.ar    1  UNL1        0.0000
     13 H          10.9354    4.9875    8.2783 H       1  UNL1        0.0000
     14 C          14.3858    7.0610    2.3778 C.ar    1  UNL1        0.0000
     15 H          13.3430    7.0801    2.0917 H       1  UNL1        0.0000
     16 C          17.0577    7.0089    3.0823 C.ar    1  UNL1        0.0000
     17 H          18.1000    6.9816    3.3626 H       1  UNL1        0.0000
     18 C          15.2622    7.9800    1.8287 C.ar    1  UNL1        0.0000
     19 H          14.9020    8.7164    1.1236 H       1  UNL1        0.0000
     20 C          16.6015    7.9564    2.1812 C.ar    1  UNL1        0.0000
     21 H          17.2882    8.6729    1.7536 H       1  UNL1        0.0000
     22 C          11.1026    3.9225    3.0967 C.ar    1  UNL1        0.0000
     23 H          10.7988    3.9965    4.1303 H       1  UNL1        0.0000
     24 C          12.7667    4.1777    1.4103 C.ar    1  UNL1        0.0000
     25 H          13.7721    4.4482    1.1186 H       1  UNL1        0.0000
     26 C          11.0827    6.9424    7.4199 C.ar    1  UNL1        0.0000
     27 H          10.4880    7.4130    8.1902 H       1  UNL1        0.0000
     28 C          11.8648    3.7574    0.4485 C.ar    1  UNL1        0.0000
     29 H          12.1665    3.6990   -0.5881 H       1  UNL1        0.0000
     30 C          10.5751    3.4094    0.8142 C.ar    1  UNL1        0.0000
     31 H           9.8691    3.0770    0.0662 H       1  UNL1        0.0000
     32 C          10.1949    3.4969    2.1427 C.ar    1  UNL1        0.0000
     33 H           9.1867    3.2349    2.4332 H       1  UNL1        0.0000
     34 C          16.1706    6.0978    3.6254 C.ar    1  UNL1        0.0000
     35 H          16.5381    5.3563    4.3348 H       1  UNL1        0.0000
@<TRIPOS>BOND
     1    29    28    1
     2    31    30    1
     3    28    30   ar
     4    28    24   ar
     5    30    32   ar
     6    25    24    1
     7    19    18    1
     8    24    11   ar
     9    21    20    1
    10    18    20   ar
    11    18    14   ar
    12    15    14    1
    13    32    33    1
    14    32    22   ar
    15    20    16   ar
    16    14    10   ar
    17    11    22   ar
    18    11     1    1
    19    16    17    1
    20    16    34   ar
    21    22    23    1
    22    10    34   ar
    23    10     1    1
    24    34    35    1
    25     1     2    1
    26     1     3    1
    27     5     4    1
    28     4     3   ar
    29     4     6   ar
    30     3     8   ar
    31     7     6    1
    32     6    26   ar
    33     8     9    1
    34     8    12   ar
    35    26    12   ar
    36    26    27    1
    37    12    13    1
