@<TRIPOS>MOLECULE
30
 30 30 0 0 0
SMALL
GASTEIGER

@<TRIPOS>ATOM
      1 C           5.5751    6.3194    2.8049 C.ar    1  UNL1        0.1858
      2 C           4.8931    5.3559    3.5736 C.ar    1  UNL1        0.0021
      3 C           5.2795    4.0271    3.4827 C.ar    1  UNL1       -0.0547
      4 H           4.7634    3.2847    4.0724 H       1  UNL1        0.0622
      5 C           6.3151    3.6389    2.6561 C.ar    1  UNL1       -0.0610
      6 H           6.6025    2.5998    2.5983 H       1  UNL1        0.0618
      7 C           6.9908    4.5877    1.9079 C.ar    1  UNL1       -0.0547
      8 H           7.8036    4.2750    1.2727 H       1  UNL1        0.0622
      9 C           6.6402    5.9249    1.9649 C.ar    1  UNL1        0.0021
     10 C           3.7833    5.7744    4.5096 C.3     1  UNL1       -0.0179
     11 H           3.6046    6.8465    4.3502 H       1  UNL1        0.0345
     12 C           2.4823    5.0212    4.2249 C.3     1  UNL1       -0.0585
     13 H           2.1822    5.1506    3.1876 H       1  UNL1        0.0235
     14 H           1.6859    5.3953    4.8656 H       1  UNL1        0.0235
     15 H           2.5977    3.9575    4.4169 H       1  UNL1        0.0235
     16 C           4.2150    5.5669    5.9644 C.3     1  UNL1       -0.0585
     17 H           4.3648    4.5102    6.1727 H       1  UNL1        0.0235
     18 H           3.4553    5.9475    6.6441 H       1  UNL1        0.0235
     19 H           5.1498    6.0873    6.1613 H       1  UNL1        0.0235
     20 C           7.3716    7.0047    1.2063 C.3     1  UNL1       -0.0179
     21 H           6.6149    7.6982    0.8123 H       1  UNL1        0.0345
     22 C           8.2040    6.4919    0.0350 C.3     1  UNL1       -0.0585
     23 H           8.5771    7.3381   -0.5371 H       1  UNL1        0.0235
     24 H           7.6036    5.8696   -0.6249 H       1  UNL1        0.0235
     25 H           9.0601    5.9175    0.3824 H       1  UNL1        0.0235
     26 C           8.2572    7.7834    2.1886 C.3     1  UNL1       -0.0585
     27 H           7.6513    8.1942    2.9991 H       1  UNL1        0.0235
     28 H           8.7448    8.6083    1.6751 H       1  UNL1        0.0235
     29 H           9.0171    7.1280    2.6119 H       1  UNL1        0.0235
     30 O           5.2245    7.6013    2.8655 O.3     1  UNL1       -0.2873
@<TRIPOS>BOND
     1    24    22    1
     2    23    22    1
     3    22    25    1
     4    22    20    1
     5    21    20    1
     6    20     9    1
     7    20    26    1
     8     8     7    1
     9    28    26    1
    10     7     9   ar
    11     7     5   ar
    12     9     1   ar
    13    26    29    1
    14    26    27    1
    15     6     5    1
    16     5     3   ar
    17     1    30    1
    18     1     2   ar
    19    13    12    1
    20     3     2   ar
    21     3     4    1
    22     2    10    1
    23    12    15    1
    24    12    10    1
    25    12    14    1
    26    11    10    1
    27    10    16    1
    28    16    19    1
    29    16    17    1
    30    16    18    1
