@<TRIPOS>MOLECULE
2
 41 40 0 0 0
SMALL
GASTEIGER

@<TRIPOS>ATOM
      1 SI          5.2552   14.1120    1.7022 Si      1  UNL1        0.0000
      2 O           6.7859   13.5855    1.5047 O.3     1  UNL1        0.0000
      3 C           4.6809   14.9104   -0.0013 C.3     1  UNL1        0.0000
      4 C           5.7719   15.8506   -0.5233 C.3     1  UNL1        0.0000
      5 C           3.3714   15.6980    0.0977 C.3     1  UNL1        0.0000
      6 C           4.4909   13.8341   -1.0754 C.3     1  UNL1        0.0000
      7 C           5.2305   15.4420    3.1488 C.3     1  UNL1        0.0000
      8 C           6.1414   15.0097    4.3008 C.3     1  UNL1        0.0000
      9 C           3.8207   15.6555    3.7048 C.3     1  UNL1        0.0000
     10 C           5.7499   16.8077    2.6850 C.3     1  UNL1        0.0000
     11 C           4.2345   12.4876    2.1231 C.3     1  UNL1        0.0000
     12 C           2.7237   12.6358    1.9314 C.3     1  UNL1        0.0000
     13 C           4.4713   12.0649    3.5761 C.3     1  UNL1        0.0000
     14 C           4.7301   11.3402    1.2339 C.3     1  UNL1        0.0000
     15 H           5.5634   16.1319   -1.5556 H       1  UNL1        0.0000
     16 H           6.7350   15.3456   -0.4890 H       1  UNL1        0.0000
     17 H           5.8351   16.7602    0.0618 H       1  UNL1        0.0000
     18 H           3.0885   16.0711   -0.8867 H       1  UNL1        0.0000
     19 H           3.4715   16.5531    0.7586 H       1  UNL1        0.0000
     20 H           2.5631   15.0750    0.4676 H       1  UNL1        0.0000
     21 H           4.3049   14.3036   -2.0421 H       1  UNL1        0.0000
     22 H           3.6406   13.1970   -0.8536 H       1  UNL1        0.0000
     23 H           5.3847   13.2213   -1.1604 H       1  UNL1        0.0000
     24 H           6.1521   15.7765    5.0763 H       1  UNL1        0.0000
     25 H           7.1577   14.8745    3.9418 H       1  UNL1        0.0000
     26 H           5.8084   14.0824    4.7515 H       1  UNL1        0.0000
     27 H           3.8325   16.4455    4.4559 H       1  UNL1        0.0000
     28 H           3.4409   14.7557    4.1776 H       1  UNL1        0.0000
     29 H           3.1284   15.9454    2.9208 H       1  UNL1        0.0000
     30 H           5.8502   17.4729    3.5437 H       1  UNL1        0.0000
     31 H           5.0624   17.2780    1.9890 H       1  UNL1        0.0000
     32 H           6.7239   16.7154    2.2144 H       1  UNL1        0.0000
     33 H           2.2193   11.7192    2.2381 H       1  UNL1        0.0000
     34 H           2.4701   12.8217    0.8927 H       1  UNL1        0.0000
     35 H           2.3327   13.4528    2.5304 H       1  UNL1        0.0000
     36 H           4.0466   11.0765    3.7557 H       1  UNL1        0.0000
     37 H           4.0007   12.7550    4.2698 H       1  UNL1        0.0000
     38 H           5.5332   12.0265    3.7916 H       1  UNL1        0.0000
     39 H           4.3277   10.3897    1.5854 H       1  UNL1        0.0000
     40 H           5.8186   11.2888    1.2537 H       1  UNL1        0.0000
     41 H           4.4212   11.4738    0.2034 H       1  UNL1        0.0000
@<TRIPOS>BOND
     1    21     6    1
     2    15     4    1
     3    23     6    1
     4     6    22    1
     5     6     3    1
     6    18     5    1
     7     4    16    1
     8     4     3    1
     9     4    17    1
    10     3     5    1
    11     3     1    1
    12     5    20    1
    13     5    19    1
    14    41    14    1
    15    34    12    1
    16    14    40    1
    17    14    39    1
    18    14    11    1
    19     2     1    1
    20     1    11    1
    21     1     7    1
    22    12    11    1
    23    12    33    1
    24    12    35    1
    25    31    10    1
    26    11    13    1
    27    32    10    1
    28    10     7    1
    29    10    30    1
    30    29     9    1
    31     7     9    1
    32     7     8    1
    33    13    36    1
    34    13    38    1
    35    13    37    1
    36     9    28    1
    37     9    27    1
    38    25     8    1
    39     8    26    1
    40     8    24    1
