@<TRIPOS>MOLECULE
2
 41 40 0 0 0
SMALL
GASTEIGER

@<TRIPOS>ATOM
      1 SI         10.6127   12.9742   -2.1067 Si      1  UNL1        0.0000
      2 O           9.9314   12.9913   -0.6247 O.3     1  UNL1        0.0000
      3 C          10.1320   14.6664   -2.9921 C.3     1  UNL1        0.0000
      4 C          10.3317   14.6370   -4.5099 C.3     1  UNL1        0.0000
      5 C          10.9433   15.8436   -2.4391 C.3     1  UNL1        0.0000
      6 C           8.6657   15.0022   -2.7093 C.3     1  UNL1        0.0000
      7 C          12.5660   12.8023   -1.9370 C.3     1  UNL1        0.0000
      8 C          13.2940   13.1279   -3.2430 C.3     1  UNL1        0.0000
      9 C          13.1141   13.7327   -0.8509 C.3     1  UNL1        0.0000
     10 C          12.9704   11.3839   -1.5264 C.3     1  UNL1        0.0000
     11 C           9.8310   11.4177   -3.0309 C.3     1  UNL1        0.0000
     12 C           9.7603   10.2422   -2.0503 C.3     1  UNL1        0.0000
     13 C           8.3916   11.6843   -3.4838 C.3     1  UNL1        0.0000
     14 C          10.6129   10.9739   -4.2708 C.3     1  UNL1        0.0000
     15 H          10.0898   15.6116   -4.9346 H       1  UNL1        0.0000
     16 H           9.6854   13.9023   -4.9788 H       1  UNL1        0.0000
     17 H          11.3583   14.4022   -4.7708 H       1  UNL1        0.0000
     18 H          10.5610   16.7807   -2.8457 H       1  UNL1        0.0000
     19 H          11.9907   15.7733   -2.7155 H       1  UNL1        0.0000
     20 H          10.8611   15.8888   -1.3569 H       1  UNL1        0.0000
     21 H           8.4155   15.9754   -3.1332 H       1  UNL1        0.0000
     22 H           8.5032   15.0393   -1.6339 H       1  UNL1        0.0000
     23 H           7.9893   14.2687   -3.1307 H       1  UNL1        0.0000
     24 H          14.3608   12.9319   -3.1300 H       1  UNL1        0.0000
     25 H          13.1787   14.1734   -3.5102 H       1  UNL1        0.0000
     26 H          12.9258   12.5213   -4.0636 H       1  UNL1        0.0000
     27 H          14.1863   13.5718   -0.7278 H       1  UNL1        0.0000
     28 H          12.6282   13.5276    0.0971 H       1  UNL1        0.0000
     29 H          12.9615   14.7751   -1.1056 H       1  UNL1        0.0000
     30 H          14.0417   11.3468   -1.3229 H       1  UNL1        0.0000
     31 H          12.7632   10.6645   -2.3119 H       1  UNL1        0.0000
     32 H          12.4429   11.0891   -0.6281 H       1  UNL1        0.0000
     33 H           9.2061    9.4136   -2.4926 H       1  UNL1        0.0000
     34 H           9.2492   10.5511   -1.1376 H       1  UNL1        0.0000
     35 H          10.7499    9.8807   -1.7926 H       1  UNL1        0.0000
     36 H           7.9557   10.7668   -3.8818 H       1  UNL1        0.0000
     37 H           8.3528   12.4309   -4.2707 H       1  UNL1        0.0000
     38 H           7.7810   12.0139   -2.6474 H       1  UNL1        0.0000
     39 H          10.1027   10.1389   -4.7517 H       1  UNL1        0.0000
     40 H          11.6152   10.6445   -4.0175 H       1  UNL1        0.0000
     41 H          10.6907   11.7814   -4.9926 H       1  UNL1        0.0000
@<TRIPOS>BOND
     1    41    14    1
     2    16     4    1
     3    15     4    1
     4    17     4    1
     5    39    14    1
     6     4     3    1
     7    14    40    1
     8    14    11    1
     9    37    13    1
    10    26     8    1
    11    36    13    1
    12    25     8    1
    13    13    11    1
    14    13    38    1
    15     8    24    1
    16     8     7    1
    17    21     6    1
    18    23     6    1
    19    11     1    1
    20    11    12    1
    21     3     6    1
    22     3     5    1
    23     3     1    1
    24    18     5    1
    25    19     5    1
    26     6    22    1
    27    33    12    1
    28     5    20    1
    29    31    10    1
    30     1     7    1
    31     1     2    1
    32    12    35    1
    33    12    34    1
    34     7    10    1
    35     7     9    1
    36    10    30    1
    37    10    32    1
    38    29     9    1
    39     9    27    1
    40     9    28    1
