@<TRIPOS>MOLECULE
2
 41 40 0 0 0
SMALL
GASTEIGER

@<TRIPOS>ATOM
      1 SI          9.6808   10.7113    3.0776 Si      1  UNL1        0.0000
      2 O           9.1750   11.8521    2.0324 O.3     1  UNL1        0.0000
      3 C          11.5402   10.3306    2.6001 C.3     1  UNL1        0.0000
      4 C          12.3338    9.6624    3.7235 C.3     1  UNL1        0.0000
      5 C          11.6175    9.4221    1.3700 C.3     1  UNL1        0.0000
      6 C          12.2267   11.6440    2.2122 C.3     1  UNL1        0.0000
      7 C           8.5070    9.1617    2.8154 C.3     1  UNL1        0.0000
      8 C           8.2409    8.9611    1.3185 C.3     1  UNL1        0.0000
      9 C           9.0782    7.8686    3.4030 C.3     1  UNL1        0.0000
     10 C           7.1420    9.3917    3.4685 C.3     1  UNL1        0.0000
     11 C           9.5060   11.5324    4.8474 C.3     1  UNL1        0.0000
     12 C          10.5443   12.6418    5.0434 C.3     1  UNL1        0.0000
     13 C           8.1323   12.2039    4.9552 C.3     1  UNL1        0.0000
     14 C           9.6583   10.5334    5.9954 C.3     1  UNL1        0.0000
     15 H          13.3407    9.4248    3.3791 H       1  UNL1        0.0000
     16 H          11.8579    8.7385    4.0403 H       1  UNL1        0.0000
     17 H          12.4250   10.3138    4.5875 H       1  UNL1        0.0000
     18 H          12.6528    9.3303    1.0384 H       1  UNL1        0.0000
     19 H          11.0291    9.8401    0.5581 H       1  UNL1        0.0000
     20 H          11.2576    8.4212    1.5867 H       1  UNL1        0.0000
     21 H          13.2245   11.4494    1.8172 H       1  UNL1        0.0000
     22 H          12.3301   12.3092    3.0629 H       1  UNL1        0.0000
     23 H          11.6367   12.1471    1.4469 H       1  UNL1        0.0000
     24 H           7.4727    8.2009    1.1734 H       1  UNL1        0.0000
     25 H           9.1308    8.6386    0.7896 H       1  UNL1        0.0000
     26 H           7.8872    9.8922    0.8673 H       1  UNL1        0.0000
     27 H           8.3623    7.0558    3.2796 H       1  UNL1        0.0000
     28 H           9.2801    7.9821    4.4646 H       1  UNL1        0.0000
     29 H          10.0008    7.5736    2.9139 H       1  UNL1        0.0000
     30 H           6.4584    8.5859    3.1984 H       1  UNL1        0.0000
     31 H           6.7141   10.3279    3.1277 H       1  UNL1        0.0000
     32 H           7.2176    9.4059    4.5517 H       1  UNL1        0.0000
     33 H          10.3733   13.1471    5.9951 H       1  UNL1        0.0000
     34 H          10.4606   13.3806    4.2502 H       1  UNL1        0.0000
     35 H          11.5566   12.2487    5.0595 H       1  UNL1        0.0000
     36 H           8.1206   12.9158    5.7806 H       1  UNL1        0.0000
     37 H           7.3505   11.4758    5.1407 H       1  UNL1        0.0000
     38 H           7.9036   12.7377    4.0344 H       1  UNL1        0.0000
     39 H           9.5467   11.0446    6.9518 H       1  UNL1        0.0000
     40 H          10.6344   10.0581    5.9780 H       1  UNL1        0.0000
     41 H           8.9023    9.7554    5.9438 H       1  UNL1        0.0000
@<TRIPOS>BOND
     1    19     5    1
     2    25     8    1
     3    26     8    1
     4    18     5    1
     5    24     8    1
     6     8     7    1
     7     5    20    1
     8     5     3    1
     9    23     6    1
    10    21     6    1
    11     2     1    1
    12     6     3    1
    13     6    22    1
    14     3     1    1
    15     3     4    1
    16     7     1    1
    17     7     9    1
    18     7    10    1
    19    29     9    1
    20     1    11    1
    21    31    10    1
    22    30    10    1
    23    27     9    1
    24    15     4    1
    25     9    28    1
    26    10    32    1
    27     4    16    1
    28     4    17    1
    29    38    13    1
    30    34    12    1
    31    11    13    1
    32    11    12    1
    33    11    14    1
    34    13    37    1
    35    13    36    1
    36    12    35    1
    37    12    33    1
    38    41    14    1
    39    40    14    1
    40    14    39    1
