@<TRIPOS>MOLECULE
1
 13 13 0 0 0
SMALL
GASTEIGER

@<TRIPOS>ATOM
      1 O           2.9968    4.3945    8.0233 O.3     1  UNL1       -0.3798
      2 C           1.9982    4.2722    9.0529 C.3     1  UNL1        0.0477
      3 C           1.6833    5.6996    9.5366 C.3     1  UNL1       -0.0274
      4 C           2.7850    6.5492    8.8879 C.3     1  UNL1       -0.0274
      5 C           3.8036    5.4953    8.4645 C.3     1  UNL1        0.0477
      6 H           1.1245    3.7632    8.6353 H       1  UNL1        0.0560
      7 H           2.4170    3.6602    9.8642 H       1  UNL1        0.0560
      8 H           1.7170    5.7537   10.6236 H       1  UNL1        0.0288
      9 H           0.7006    6.0144    9.1944 H       1  UNL1        0.0288
     10 H           2.3985    7.0467    7.9975 H       1  UNL1        0.0288
     11 H           3.2081    7.2894    9.5621 H       1  UNL1        0.0288
     12 H           4.4118    5.1669    9.3202 H       1  UNL1        0.0560
     13 H           4.4469    5.8175    7.6454 H       1  UNL1        0.0560
@<TRIPOS>BOND
     1    13     5    1
     2    10     4    1
     3     1     5    1
     4     1     2    1
     5     5     4    1
     6     5    12    1
     7     6     2    1
     8     4     3    1
     9     4    11    1
    10     2     3    1
    11     2     7    1
    12     9     3    1
    13     3     8    1
