@<TRIPOS>MOLECULE
1
 13 13 0 0 0
SMALL
GASTEIGER

@<TRIPOS>ATOM
      1 O           4.0076    9.0531   14.2367 O.3     1  UNL1       -0.3798
      2 C           4.9767    8.3648   13.4498 C.3     1  UNL1        0.0477
      3 H           4.9226    7.3012   13.6963 H       1  UNL1        0.0560
      4 H           5.9781    8.7439   13.7038 H       1  UNL1        0.0560
      5 C           4.6438    8.6860   11.9819 C.3     1  UNL1       -0.0274
      6 H           4.1328    7.8530   11.5038 H       1  UNL1        0.0288
      7 H           5.5500    8.8995   11.4178 H       1  UNL1        0.0288
      8 C           3.7212    9.9139   12.0775 C.3     1  UNL1       -0.0274
      9 H           4.0452   10.7302   11.4360 H       1  UNL1        0.0288
     10 H           2.6968    9.6498   11.8168 H       1  UNL1        0.0288
     11 C           3.7970   10.2885   13.5598 C.3     1  UNL1        0.0477
     12 H           4.6485   10.9593   13.7517 H       1  UNL1        0.0560
     13 H           2.8807   10.7327   13.9479 H       1  UNL1        0.0560
@<TRIPOS>BOND
     1     7     5    1
     2     9     8    1
     3     6     5    1
     4    10     8    1
     5     5     8    1
     6     5     2    1
     7     8    11    1
     8     2     3    1
     9     2     4    1
    10     2     1    1
    11    11    12    1
    12    11    13    1
    13    11     1    1
