@<TRIPOS>MOLECULE
1
 13 13 0 0 0
SMALL
GASTEIGER

@<TRIPOS>ATOM
      1 O           4.6926    8.3510   17.0619 O.3     1  UNL1       -0.3798
      2 C           5.4256    9.5484   17.2822 C.3     1  UNL1        0.0477
      3 H           4.7148   10.3734   17.3250 H       1  UNL1        0.0560
      4 H           6.1410    9.7065   16.4605 H       1  UNL1        0.0560
      5 C           6.1588    9.3157   18.5998 C.3     1  UNL1       -0.0274
      6 H           5.4737    9.4997   19.4270 H       1  UNL1        0.0288
      7 H           7.0282    9.9591   18.7105 H       1  UNL1        0.0288
      8 C           6.5240    7.8295   18.5083 C.3     1  UNL1       -0.0274
      9 H           7.5550    7.6994   18.1810 H       1  UNL1        0.0288
     10 H           6.4079    7.3251   19.4648 H       1  UNL1        0.0288
     11 C           5.5494    7.2760   17.4513 C.3     1  UNL1        0.0477
     12 H           6.0944    6.9112   16.5714 H       1  UNL1        0.0560
     13 H           4.9149    6.4711   17.8270 H       1  UNL1        0.0560
@<TRIPOS>BOND
     1     4     2    1
     2    12    11    1
     3     1     2    1
     4     1    11    1
     5     2     3    1
     6     2     5    1
     7    11    13    1
     8    11     8    1
     9     9     8    1
    10     8     5    1
    11     8    10    1
    12     5     7    1
    13     5     6    1
