@<TRIPOS>MOLECULE
2
 31 30 0 0 0
SMALL
GASTEIGER

@<TRIPOS>ATOM
      1 SI          7.7673    0.8767    4.9855 Si      1  UNL1        0.0000
      2 O           8.8786    1.9615    4.5439 O.3     1  UNL1        0.0000
      3 N           8.3171   -0.2965    6.1506 N.3     1  UNL1        0.0000
      4 H           8.6316    0.0394    7.0471 H       1  UNL1        0.0000
      5 H           8.9133   -1.0501    5.8507 H       1  UNL1        0.0000
      6 C           6.3101    1.8006    5.8706 C.3     1  UNL1        0.0000
      7 C           6.9033    3.0199    6.5837 C.3     1  UNL1        0.0000
      8 H           6.1131    3.6613    6.9762 H       1  UNL1        0.0000
      9 H           7.5316    3.6021    5.9043 H       1  UNL1        0.0000
     10 H           7.5232    2.6950    7.4155 H       1  UNL1        0.0000
     11 C           5.2257    2.2863    4.9068 C.3     1  UNL1        0.0000
     12 H           4.4623    2.8431    5.4526 H       1  UNL1        0.0000
     13 H           4.7374    1.4457    4.4203 H       1  UNL1        0.0000
     14 H           5.6410    2.9393    4.1467 H       1  UNL1        0.0000
     15 C           5.6331    0.9024    6.9071 C.3     1  UNL1        0.0000
     16 H           4.8307    1.4432    7.4094 H       1  UNL1        0.0000
     17 H           6.3422    0.5662    7.6566 H       1  UNL1        0.0000
     18 H           5.2101    0.0233    6.4299 H       1  UNL1        0.0000
     19 C           7.4028   -0.0889    3.3508 C.3     1  UNL1        0.0000
     20 C           6.2915   -1.1270    3.4768 C.3     1  UNL1        0.0000
     21 H           6.1726   -1.6793    2.5442 H       1  UNL1        0.0000
     22 H           5.3429   -0.6533    3.7130 H       1  UNL1        0.0000
     23 H           6.5224   -1.8327    4.2701 H       1  UNL1        0.0000
     24 C           7.0695    0.9129    2.2437 C.3     1  UNL1        0.0000
     25 H           7.0264    0.4128    1.2745 H       1  UNL1        0.0000
     26 H           7.8515    1.6791    2.2131 H       1  UNL1        0.0000
     27 H           6.1106    1.3925    2.4182 H       1  UNL1        0.0000
     28 C           8.6986   -0.7872    2.9307 C.3     1  UNL1        0.0000
     29 H           8.5823   -1.2452    1.9468 H       1  UNL1        0.0000
     30 H           8.9660   -1.5704    3.6359 H       1  UNL1        0.0000
     31 H           9.5076   -0.0529    2.8862 H       1  UNL1        0.0000
@<TRIPOS>BOND
     1    25    24    1
     2    29    28    1
     3    26    24    1
     4    24    27    1
     5    24    19    1
     6    21    20    1
     7    31    28    1
     8    28    19    1
     9    28    30    1
    10    19    20    1
    11    19     1    1
    12    20    22    1
    13    20    23    1
    14    14    11    1
    15    13    11    1
    16     2     1    1
    17    11    12    1
    18    11     6    1
    19     1     6    1
    20     1     3    1
    21     5     3    1
    22     6     7    1
    23     6    15    1
    24     9     7    1
    25     3     4    1
    26    18    15    1
    27     7     8    1
    28     7    10    1
    29    15    16    1
    30    15    17    1
