@<TRIPOS>MOLECULE
2
 31 30 0 0 0
SMALL
GASTEIGER

@<TRIPOS>ATOM
      1 SI          9.3356    5.0205    1.4569 Si      1  UNL1        0.0000
      2 O           9.7997    3.9440    2.5669 O.3     1  UNL1        0.0000
      3 N          10.5299    6.2285    1.0694 N.3     1  UNL1        0.0000
      4 H          10.7147    6.9673    1.7279 H       1  UNL1        0.0000
      5 H          11.3995    5.9217    0.6634 H       1  UNL1        0.0000
      6 C           7.8702    5.9470    2.3125 C.3     1  UNL1        0.0000
      7 C           8.4282    6.6357    3.5606 C.3     1  UNL1        0.0000
      8 H           7.6190    7.0784    4.1443 H       1  UNL1        0.0000
      9 H           9.1208    7.4294    3.2914 H       1  UNL1        0.0000
     10 H           8.9486    5.8987    4.1791 H       1  UNL1        0.0000
     11 C           6.8485    4.9200    2.8041 C.3     1  UNL1        0.0000
     12 H           6.1049    5.3972    3.4451 H       1  UNL1        0.0000
     13 H           7.3710    4.1480    3.3800 H       1  UNL1        0.0000
     14 H           6.3266    4.4515    1.9746 H       1  UNL1        0.0000
     15 C           7.1908    6.9876    1.4267 C.3     1  UNL1        0.0000
     16 H           6.4140    7.5164    1.9798 H       1  UNL1        0.0000
     17 H           6.7310    6.5196    0.5608 H       1  UNL1        0.0000
     18 H           7.9176    7.7128    1.0712 H       1  UNL1        0.0000
     19 C           9.0083    4.0906   -0.2132 C.3     1  UNL1        0.0000
     20 C           7.5683    3.5950   -0.3589 C.3     1  UNL1        0.0000
     21 H           7.4566    3.0398   -1.2916 H       1  UNL1        0.0000
     22 H           6.8733    4.4304   -0.3860 H       1  UNL1        0.0000
     23 H           7.2961    2.9370    0.4597 H       1  UNL1        0.0000
     24 C           9.3083    4.9877   -1.4150 C.3     1  UNL1        0.0000
     25 H           9.1314    4.4459   -2.3443 H       1  UNL1        0.0000
     26 H          10.3400    5.3239   -1.4055 H       1  UNL1        0.0000
     27 H           8.6706    5.8667   -1.4016 H       1  UNL1        0.0000
     28 C           9.9410    2.8761   -0.2552 C.3     1  UNL1        0.0000
     29 H           9.7033    2.2346   -1.1049 H       1  UNL1        0.0000
     30 H           9.8620    2.2929    0.6663 H       1  UNL1        0.0000
     31 H          10.9723    3.2056   -0.3545 H       1  UNL1        0.0000
@<TRIPOS>BOND
     1    25    24    1
     2    24    26    1
     3    24    27    1
     4    24    19    1
     5    21    20    1
     6    29    28    1
     7    22    20    1
     8    20    19    1
     9    20    23    1
    10    31    28    1
    11    28    19    1
    12    28    30    1
    13    19     1    1
    14    17    15    1
    15     5     3    1
    16     3     1    1
    17     3     4    1
    18    18    15    1
    19    15    16    1
    20    15     6    1
    21     1     6    1
    22     1     2    1
    23    14    11    1
    24     6    11    1
    25     6     7    1
    26    11    13    1
    27    11    12    1
    28     9     7    1
    29     7     8    1
    30     7    10    1
