@<TRIPOS>MOLECULE
2
 31 30 0 0 0
SMALL
GASTEIGER

@<TRIPOS>ATOM
      1 SI         12.6355    0.8767    2.9323 Si      1  UNL1        0.0000
      2 O          11.5241    1.9615    3.3738 O.3     1  UNL1        0.0000
      3 N          12.0858   -0.2965    1.7671 N.3     1  UNL1        0.0000
      4 H          11.7706    0.0397    0.8709 H       1  UNL1        0.0000
      5 H          11.4903   -1.0507    2.0670 H       1  UNL1        0.0000
      6 C          14.0927    1.8007    2.0474 C.3     1  UNL1        0.0000
      7 C          13.4994    3.0201    1.3344 C.3     1  UNL1        0.0000
      8 H          14.2897    3.6615    0.9419 H       1  UNL1        0.0000
      9 H          12.8713    3.6022    2.0138 H       1  UNL1        0.0000
     10 H          12.8795    2.6953    0.5026 H       1  UNL1        0.0000
     11 C          15.1770    2.2862    3.0113 C.3     1  UNL1        0.0000
     12 H          15.9404    2.8431    2.4656 H       1  UNL1        0.0000
     13 H          15.6654    1.4456    3.4977 H       1  UNL1        0.0000
     14 H          14.7617    2.9391    3.7716 H       1  UNL1        0.0000
     15 C          14.7696    0.9026    1.0108 C.3     1  UNL1        0.0000
     16 H          15.5719    1.4435    0.5085 H       1  UNL1        0.0000
     17 H          14.0605    0.5663    0.2613 H       1  UNL1        0.0000
     18 H          15.1927    0.0235    1.4880 H       1  UNL1        0.0000
     19 C          12.9997   -0.0889    4.5670 C.3     1  UNL1        0.0000
     20 C          14.1111   -1.1270    4.4412 C.3     1  UNL1        0.0000
     21 H          14.2299   -1.6793    5.3738 H       1  UNL1        0.0000
     22 H          15.0598   -0.6532    4.2051 H       1  UNL1        0.0000
     23 H          13.8804   -1.8328    3.6478 H       1  UNL1        0.0000
     24 C          13.3328    0.9128    5.6742 C.3     1  UNL1        0.0000
     25 H          13.3758    0.4126    6.6435 H       1  UNL1        0.0000
     26 H          12.5508    1.6789    5.7048 H       1  UNL1        0.0000
     27 H          14.2917    1.3924    5.5000 H       1  UNL1        0.0000
     28 C          11.7040   -0.7874    4.9869 C.3     1  UNL1        0.0000
     29 H          11.8201   -1.2456    5.9708 H       1  UNL1        0.0000
     30 H          11.4366   -1.5705    4.2816 H       1  UNL1        0.0000
     31 H          10.8950   -0.0531    5.0315 H       1  UNL1        0.0000
@<TRIPOS>BOND
     1    17    15    1
     2    10     7    1
     3    16    15    1
     4     4     3    1
     5     8     7    1
     6    15    18    1
     7    15     6    1
     8     7     9    1
     9     7     6    1
    10     3     5    1
    11     3     1    1
    12     6     1    1
    13     6    11    1
    14    12    11    1
    15     1     2    1
    16     1    19    1
    17    11    13    1
    18    11    14    1
    19    23    20    1
    20    22    20    1
    21    30    28    1
    22    20    19    1
    23    20    21    1
    24    19    28    1
    25    19    24    1
    26    28    31    1
    27    28    29    1
    28    27    24    1
    29    24    26    1
    30    24    25    1
