@<TRIPOS>MOLECULE
2
 31 30 0 0 0
SMALL
GASTEIGER

@<TRIPOS>ATOM
      1 SI         11.0672    5.0205    6.4607 Si      1  UNL1        0.0000
      2 O          10.6031    3.9440    5.3506 O.3     1  UNL1        0.0000
      3 N           9.8728    6.2284    6.8481 N.3     1  UNL1        0.0000
      4 H           9.6879    6.9671    6.1896 H       1  UNL1        0.0000
      5 H           9.0033    5.9216    7.2543 H       1  UNL1        0.0000
      6 C          12.5325    5.9471    5.6052 C.3     1  UNL1        0.0000
      7 C          11.9746    6.6358    4.3570 C.3     1  UNL1        0.0000
      8 H          12.7838    7.0785    3.7734 H       1  UNL1        0.0000
      9 H          11.2820    7.4295    4.6262 H       1  UNL1        0.0000
     10 H          11.4542    5.8989    3.7385 H       1  UNL1        0.0000
     11 C          13.5542    4.9200    5.1135 C.3     1  UNL1        0.0000
     12 H          14.2979    5.3973    4.4726 H       1  UNL1        0.0000
     13 H          13.0318    4.1481    4.5376 H       1  UNL1        0.0000
     14 H          14.0761    4.4515    5.9430 H       1  UNL1        0.0000
     15 C          13.2119    6.9876    6.4910 C.3     1  UNL1        0.0000
     16 H          13.9887    7.5165    5.9380 H       1  UNL1        0.0000
     17 H          13.6717    6.5196    7.3569 H       1  UNL1        0.0000
     18 H          12.4851    7.7127    6.8466 H       1  UNL1        0.0000
     19 C          11.3944    4.0906    8.1307 C.3     1  UNL1        0.0000
     20 C          12.8345    3.5951    8.2765 C.3     1  UNL1        0.0000
     21 H          12.9461    3.0399    9.2092 H       1  UNL1        0.0000
     22 H          13.5294    4.4305    8.3036 H       1  UNL1        0.0000
     23 H          13.1068    2.9371    7.4579 H       1  UNL1        0.0000
     24 C          11.0943    4.9876    9.3325 C.3     1  UNL1        0.0000
     25 H          11.2713    4.4458   10.2619 H       1  UNL1        0.0000
     26 H          10.0625    5.3236    9.3230 H       1  UNL1        0.0000
     27 H          11.7318    5.8667    9.3192 H       1  UNL1        0.0000
     28 C          10.4618    2.8759    8.1726 C.3     1  UNL1        0.0000
     29 H          10.6995    2.2344    9.0222 H       1  UNL1        0.0000
     30 H          10.5409    2.2928    7.2511 H       1  UNL1        0.0000
     31 H           9.4305    3.2054    8.2719 H       1  UNL1        0.0000
@<TRIPOS>BOND
     1    10     7    1
     2     8     7    1
     3     7     9    1
     4     7     6    1
     5    12    11    1
     6    13    11    1
     7    11     6    1
     8    11    14    1
     9     2     1    1
    10     6     1    1
    11     6    15    1
    12    16    15    1
    13     4     3    1
    14     1     3    1
    15     1    19    1
    16    15    18    1
    17    15    17    1
    18     3     5    1
    19    30    28    1
    20    23    20    1
    21    19    28    1
    22    19    20    1
    23    19    24    1
    24    28    31    1
    25    28    29    1
    26    20    22    1
    27    20    21    1
    28    27    24    1
    29    26    24    1
    30    24    25    1
