@<TRIPOS>MOLECULE
1
 32 34 0 0 0
SMALL
GASTEIGER

@<TRIPOS>ATOM
      1 O           5.5956    1.7226    6.1520 O.3     1  UNL1       -0.2866
      2 C           6.4912    0.7745    6.3350 C.ar    1  UNL1        0.1943
      3 C           7.1669    0.6385    7.5697 C.ar    1  UNL1        0.0294
      4 C           8.0913   -0.3869    7.7343 C.ar    1  UNL1       -0.0503
      5 C           8.3804   -1.2677    6.7091 C.ar    1  UNL1       -0.0604
      6 C           7.7687   -1.1037    5.4788 C.ar    1  UNL1       -0.0503
      7 C           6.8349   -0.0970    5.2764 C.ar    1  UNL1        0.0294
      8 C           6.9288    1.5822    8.6752 C.ar    1  UNL1       -0.0142
      9 C           5.6410    1.9701    9.0399 C.ar    1  UNL1       -0.0539
     10 C           5.4390    2.8070   10.1237 C.ar    1  UNL1       -0.0612
     11 C           6.5161    3.2858   10.8506 C.ar    1  UNL1       -0.0617
     12 C           7.8022    2.9213   10.4848 C.ar    1  UNL1       -0.0612
     13 C           8.0064    2.0760    9.4105 C.ar    1  UNL1       -0.0539
     14 C           6.2450    0.1042    3.9395 C.ar    1  UNL1       -0.0142
     15 C           7.0798    0.2067    2.8263 C.ar    1  UNL1       -0.0539
     16 C           6.5492    0.3751    1.5613 C.ar    1  UNL1       -0.0612
     17 C           5.1758    0.4228    1.3851 C.ar    1  UNL1       -0.0617
     18 C           4.3383    0.3102    2.4818 C.ar    1  UNL1       -0.0612
     19 C           4.8658    0.1676    3.7556 C.ar    1  UNL1       -0.0539
     20 H           8.5765   -0.5010    8.6929 H       1  UNL1        0.0625
     21 H           9.0884   -2.0681    6.8626 H       1  UNL1        0.0618
     22 H           8.0041   -1.7702    4.6610 H       1  UNL1        0.0625
     23 H           4.7932    1.5817    8.4952 H       1  UNL1        0.0624
     24 H           4.4330    3.0784   10.4104 H       1  UNL1        0.0618
     25 H           6.3560    3.9396   11.6958 H       1  UNL1        0.0618
     26 H           8.6490    3.2963   11.0417 H       1  UNL1        0.0618
     27 H           9.0115    1.8003    9.1296 H       1  UNL1        0.0624
     28 H           8.1519    0.1558    2.9591 H       1  UNL1        0.0624
     29 H           7.2080    0.4631    0.7090 H       1  UNL1        0.0618
     30 H           4.7630    0.5402    0.3934 H       1  UNL1        0.0618
     31 H           3.2663    0.3221    2.3456 H       1  UNL1        0.0618
     32 H           4.2046    0.0470    4.6048 H       1  UNL1        0.0624
@<TRIPOS>BOND
     1    30    17    1
     2    29    16    1
     3    17    16   ar
     4    17    18   ar
     5    16    15   ar
     6    31    18    1
     7    18    19   ar
     8    15    28    1
     9    15    14   ar
    10    19    14   ar
    11    19    32    1
    12    14     7    1
    13    22     6    1
    14     7     6   ar
    15     7     2   ar
    16     6     5   ar
    17     1     2    1
    18     2     3   ar
    19     5    21    1
    20     5     4   ar
    21     3     4   ar
    22     3     8    1
    23     4    20    1
    24    23     9    1
    25     8     9   ar
    26     8    13   ar
    27     9    10   ar
    28    27    13    1
    29    13    12   ar
    30    10    24    1
    31    10    11   ar
    32    12    11   ar
    33    12    26    1
    34    11    25    1
