@<TRIPOS>MOLECULE
1
 32 34 0 0 0
SMALL
GASTEIGER

@<TRIPOS>ATOM
      1 O           5.7677    3.7212    3.9420 O.3     1  UNL1       -0.2866
      2 C           6.3195    4.8397    3.5213 C.ar    1  UNL1        0.1943
      3 C           7.5958    5.2449    3.9808 C.ar    1  UNL1        0.0294
      4 C           8.1251    6.4549    3.5447 C.ar    1  UNL1       -0.0503
      5 C           7.4266    7.2769    2.6803 C.ar    1  UNL1       -0.0604
      6 C           6.1787    6.8883    2.2270 C.ar    1  UNL1       -0.0503
      7 C           5.6214    5.6800    2.6224 C.ar    1  UNL1        0.0294
      8 C           8.3654    4.3992    4.9088 C.ar    1  UNL1       -0.0142
      9 C           9.1241    4.9794    5.9265 C.ar    1  UNL1       -0.0539
     10 C           9.9027    4.2012    6.7613 C.ar    1  UNL1       -0.0612
     11 C           9.9613    2.8302    6.5802 C.ar    1  UNL1       -0.0617
     12 C           9.2193    2.2409    5.5710 C.ar    1  UNL1       -0.0612
     13 C           8.4122    3.0125    4.7525 C.ar    1  UNL1       -0.0539
     14 C           4.3081    5.2599    2.1027 C.ar    1  UNL1       -0.0142
     15 C           4.1265    3.9769    1.5894 C.ar    1  UNL1       -0.0539
     16 C           2.8969    3.5926    1.0859 C.ar    1  UNL1       -0.0612
     17 C           1.8305    4.4758    1.0927 C.ar    1  UNL1       -0.0617
     18 C           2.0034    5.7549    1.5945 C.ar    1  UNL1       -0.0612
     19 C           3.2333    6.1465    2.0894 C.ar    1  UNL1       -0.0539
     20 H           9.1110    6.7444    3.8783 H       1  UNL1        0.0625
     21 H           7.8573    8.2107    2.3516 H       1  UNL1        0.0618
     22 H           5.6338    7.5136    1.5339 H       1  UNL1        0.0625
     23 H           9.1020    6.0500    6.0647 H       1  UNL1        0.0624
     24 H          10.4769    4.6706    7.5473 H       1  UNL1        0.0618
     25 H          10.5958    2.2227    7.2091 H       1  UNL1        0.0618
     26 H           9.2865    1.1749    5.4114 H       1  UNL1        0.0618
     27 H           7.8705    2.5461    3.9382 H       1  UNL1        0.0624
     28 H           4.9587    3.2859    1.5717 H       1  UNL1        0.0624
     29 H           2.7700    2.5980    0.6832 H       1  UNL1        0.0618
     30 H           0.8696    4.1710    0.7047 H       1  UNL1        0.0618
     31 H           1.1762    6.4504    1.5990 H       1  UNL1        0.0618
     32 H           3.3637    7.1457    2.4802 H       1  UNL1        0.0624
@<TRIPOS>BOND
     1    29    16    1
     2    30    17    1
     3    16    17   ar
     4    16    15   ar
     5    17    18   ar
     6    22     6    1
     7    28    15    1
     8    15    14   ar
     9    18    31    1
    10    18    19   ar
    11    19    14   ar
    12    19    32    1
    13    14     7    1
    14     6     7   ar
    15     6     5   ar
    16    21     5    1
    17     7     2   ar
    18     5     4   ar
    19     2     1    1
    20     2     3   ar
    21     4    20    1
    22     4     3   ar
    23    27    13    1
    24     3     8    1
    25    13     8   ar
    26    13    12   ar
    27     8     9   ar
    28    26    12    1
    29    12    11   ar
    30     9    23    1
    31     9    10   ar
    32    11    10   ar
    33    11    25    1
    34    10    24    1
