@<TRIPOS>MOLECULE
1
 63 67 0 0 0
SMALL
GASTEIGER

@<TRIPOS>ATOM
      1 O           1.2975   14.6594    7.5087 O.3     1  UNL1       -0.2267
      2 C           0.1334   14.8316    6.7773 C.3     1  UNL1        0.1143
      3 C          -0.3478   16.2989    6.7686 C.3     1  UNL1       -0.0196
      4 H           0.3921   16.9272    6.2746 H       1  UNL1        0.0294
      5 H          -1.2700   16.3542    6.1856 H       1  UNL1        0.0294
      6 C          -0.5942   16.7875    8.1934 C.3     1  UNL1       -0.0470
      7 H          -0.8486   17.8479    8.1657 H       1  UNL1        0.0269
      8 H           0.3353   16.6605    8.7627 H       1  UNL1        0.0269
      9 C          -1.7127   15.9672    8.8455 C.3     1  UNL1       -0.0359
     10 H          -2.5984   16.0211    8.1978 H       1  UNL1        0.0306
     11 C          -1.2347   14.5128    8.8653 C.3     1  UNL1       -0.0470
     12 H          -0.2943   14.4573    9.4302 H       1  UNL1        0.0269
     13 H          -1.9771   13.8640    9.3315 H       1  UNL1        0.0269
     14 C          -0.9817   14.0032    7.4448 C.3     1  UNL1       -0.0196
     15 H          -0.6785   12.9537    7.4743 H       1  UNL1        0.0294
     16 H          -1.9025   14.0814    6.8694 H       1  UNL1        0.0294
     17 C          -2.1466   16.5067   10.2342 C.3     1  UNL1       -0.0349
     18 C          -2.9308   17.8119   10.0444 C.3     1  UNL1       -0.0598
     19 H          -2.3369   18.5616    9.5291 H       1  UNL1        0.0235
     20 H          -3.2184   18.2196   11.0111 H       1  UNL1        0.0235
     21 H          -3.8358   17.6349    9.4670 H       1  UNL1        0.0235
     22 C          -0.9416   16.7790   11.1364 C.3     1  UNL1       -0.0598
     23 H          -0.2539   15.9354   11.1335 H       1  UNL1        0.0235
     24 H          -1.2740   16.9513   12.1587 H       1  UNL1        0.0235
     25 H          -0.4072   17.6631   10.8000 H       1  UNL1        0.0235
     26 C          -3.0773   15.5099   10.9382 C.3     1  UNL1       -0.0598
     27 H          -3.8619   15.1687   10.2660 H       1  UNL1        0.0235
     28 H          -3.5513   15.9899   11.7920 H       1  UNL1        0.0235
     29 H          -2.5284   14.6481   11.3075 H       1  UNL1        0.0235
     30 C          -0.6042   14.6341    4.2416 C.2     1  UNL1       -0.0563
     31 C           0.4412   14.3743    5.3044 C.3     1  UNL1        0.0311
     32 H           0.6973   13.3110    5.3588 H       1  UNL1        0.0417
     33 C           1.6131   15.1715    4.8089 C.2     1  UNL1       -0.0741
     34 H           2.5457   15.2040    5.3422 H       1  UNL1        0.0579
     35 C           1.2660   15.8459    3.7085 C.2     1  UNL1       -0.0650
     36 H           1.8848   16.5164    3.1388 H       1  UNL1        0.0615
     37 C          -0.0951   15.5107    3.3558 C.2     1  UNL1       -0.0619
     38 H          -0.5877   15.9207    2.4929 H       1  UNL1        0.0617
     39 C          -1.9494   13.9709    4.1932 C.3     1  UNL1       -0.0133
     40 H          -2.5664   14.4084    4.9919 H       1  UNL1        0.0351
     41 C          -2.7095   14.1982    2.8760 C.3     1  UNL1       -0.0337
     42 H          -2.7665   15.2729    2.6739 H       1  UNL1        0.0307
     43 C          -4.1295   13.6474    3.0237 C.3     1  UNL1       -0.0468
     44 H          -4.6466   14.1573    3.8408 H       1  UNL1        0.0271
     45 H          -4.6935   13.8335    2.1067 H       1  UNL1        0.0271
     46 C          -4.0749   12.1458    3.3007 C.3     1  UNL1       -0.0403
     47 H          -5.0939   11.7569    3.4110 H       1  UNL1        0.0301
     48 C          -3.2899   11.8946    4.5860 C.3     1  UNL1       -0.0468
     49 H          -3.2441   10.8217    4.7885 H       1  UNL1        0.0271
     50 H          -3.7933   12.3712    5.4313 H       1  UNL1        0.0271
     51 C          -1.8747   12.4524    4.4379 C.3     1  UNL1       -0.0337
     52 H          -1.3195   12.2549    5.3584 H       1  UNL1        0.0307
     53 C          -2.0256   13.4888    1.7075 C.3     1  UNL1       -0.0468
     54 H          -2.5880   13.6761    0.7894 H       1  UNL1        0.0271
     55 H          -1.0145   13.8720    1.5694 H       1  UNL1        0.0271
     56 C          -3.3795   11.4358    2.1406 C.3     1  UNL1       -0.0473
     57 H          -3.3416   10.3607    2.3318 H       1  UNL1        0.0271
     58 H          -3.9421   11.5915    1.2171 H       1  UNL1        0.0271
     59 C          -1.1719   11.7616    3.2709 C.3     1  UNL1       -0.0468
     60 H          -0.1627   12.1635    3.1561 H       1  UNL1        0.0271
     61 H          -1.0898   10.6908    3.4742 H       1  UNL1        0.0271
     62 C          -1.9641   11.9895    1.9857 C.3     1  UNL1       -0.0403
     63 H          -1.4633   11.4830    1.1527 H       1  UNL1        0.0301
@<TRIPOS>BOND
     1    54    53    1
     2    63    62    1
     3    58    56    1
     4    55    53    1
     5    53    62    1
     6    53    41    1
     7    62    56    1
     8    62    59    1
     9    45    43    1
    10    56    57    1
    11    56    46    1
    12    38    37    1
    13    42    41    1
    14    41    43    1
    15    41    39    1
    16    43    46    1
    17    43    44    1
    18    36    35    1
    19    60    59    1
    20    59    61    1
    21    59    51    1
    22    46    47    1
    23    46    48    1
    24    37    35    1
    25    37    30    2
    26    35    33    2
    27    39    30    1
    28    39    51    1
    29    39    40    1
    30    30    31    1
    31    51    48    1
    32    51    52    1
    33    48    49    1
    34    48    50    1
    35    33    31    1
    36    33    34    1
    37    31    32    1
    38    31     2    1
    39     5     3    1
    40     4     3    1
    41     3     2    1
    42     3     6    1
    43     2    14    1
    44     2     1    1
    45    16    14    1
    46    14    15    1
    47    14    11    1
    48     7     6    1
    49     6     8    1
    50     6     9    1
    51    10     9    1
    52     9    11    1
    53     9    17    1
    54    11    13    1
    55    11    12    1
    56    21    18    1
    57    19    18    1
    58    18    17    1
    59    18    20    1
    60    17    26    1
    61    17    22    1
    62    27    26    1
    63    25    22    1
    64    26    29    1
    65    26    28    1
    66    23    22    1
    67    22    24    1
