@<TRIPOS>MOLECULE
2
 35 37 0 0 0
SMALL
GASTEIGER

@<TRIPOS>ATOM
      1 SI         11.4865    2.4903   12.1318 Si      1  UNL1        0.0000
      2 O          12.5843    3.6291   11.9824 O.3     1  UNL1        0.0000
      3 C          12.0867    1.1053   13.2939 C.ar    1  UNL1        0.0000
      4 C          12.6127   -0.0751   12.7792 C.ar    1  UNL1        0.0000
      5 H          12.6340   -0.2176   11.7076 H       1  UNL1        0.0000
      6 C          13.1040   -1.0652   13.6111 C.ar    1  UNL1        0.0000
      7 H          13.5118   -1.9732   13.1897 H       1  UNL1        0.0000
      8 C          13.0757   -0.8926   14.9845 C.ar    1  UNL1        0.0000
      9 H          13.4584   -1.6638   15.6378 H       1  UNL1        0.0000
     10 C          12.5549    0.2748   15.5167 C.ar    1  UNL1        0.0000
     11 H          12.5300    0.4159   16.5887 H       1  UNL1        0.0000
     12 C          12.0693    1.2609   14.6758 C.ar    1  UNL1        0.0000
     13 H          11.6666    2.1721   15.0966 H       1  UNL1        0.0000
     14 C          11.0918    1.6853   10.4513 C.ar    1  UNL1        0.0000
     15 C           9.9974    0.8478   10.2597 C.ar    1  UNL1        0.0000
     16 H           9.3326    0.6512   11.0892 H       1  UNL1        0.0000
     17 C           9.7504    0.2660    9.0292 C.ar    1  UNL1        0.0000
     18 H           8.8968   -0.3852    8.9000 H       1  UNL1        0.0000
     19 C          10.5952    0.5197    7.9610 C.ar    1  UNL1        0.0000
     20 H          10.4036    0.0675    6.9983 H       1  UNL1        0.0000
     21 C          11.6873    1.3537    8.1325 C.ar    1  UNL1        0.0000
     22 H          12.3525    1.5533    7.3049 H       1  UNL1        0.0000
     23 C          11.9335    1.9256    9.3698 C.ar    1  UNL1        0.0000
     24 H          12.8034    2.5676    9.5089 H       1  UNL1        0.0000
     25 C           9.8613    3.2231   12.8071 C.ar    1  UNL1        0.0000
     26 C           9.0087    2.5043   13.6368 C.ar    1  UNL1        0.0000
     27 H           9.2773    1.4964   13.9200 H       1  UNL1        0.0000
     28 C           7.8306    3.0569   14.1078 C.ar    1  UNL1        0.0000
     29 H           7.1822    2.4808   14.7532 H       1  UNL1        0.0000
     30 C           7.4809    4.3489   13.7532 C.ar    1  UNL1        0.0000
     31 H           6.5622    4.7836   14.1207 H       1  UNL1        0.0000
     32 C           8.3146    5.0794   12.9228 C.ar    1  UNL1        0.0000
     33 H           8.0453    6.0875   12.6384 H       1  UNL1        0.0000
     34 C           9.4889    4.5172   12.4552 C.ar    1  UNL1        0.0000
     35 H          10.1386    5.0888   11.8026 H       1  UNL1        0.0000
@<TRIPOS>BOND
     1    20    19    1
     2    22    21    1
     3    19    21   ar
     4    19    17   ar
     5    21    23   ar
     6    18    17    1
     7    17    15   ar
     8    23    24    1
     9    23    14   ar
    10    15    14   ar
    11    15    16    1
    12    14     1    1
    13     5     4    1
    14    35    34    1
    15     2     1    1
    16     1    25    1
    17     1     3    1
    18    34    25   ar
    19    34    32   ar
    20    33    32    1
    21     4     3   ar
    22     4     6   ar
    23    25    26   ar
    24    32    30   ar
    25     7     6    1
    26     3    12   ar
    27     6     8   ar
    28    26    27    1
    29    26    28   ar
    30    30    28   ar
    31    30    31    1
    32    28    29    1
    33    12    13    1
    34    12    10   ar
    35     8    10   ar
    36     8     9    1
    37    10    11    1
