@<TRIPOS>MOLECULE
1
 13 13 0 0 0
SMALL
GASTEIGER

@<TRIPOS>ATOM
      1 O           4.5286    4.9686    1.0964 O.3     1  UNL1       -0.3798
      2 C           4.5087    4.9704    2.5387 C.3     1  UNL1        0.0477
      3 H           5.5033    4.6571    2.8833 H       1  UNL1        0.0560
      4 H           4.3133    5.9890    2.8903 H       1  UNL1        0.0560
      5 C           3.4221    3.9855    2.9659 C.3     1  UNL1       -0.0274
      6 H           2.4665    4.4988    3.0750 H       1  UNL1        0.0288
      7 H           3.6688    3.4915    3.9025 H       1  UNL1        0.0288
      8 C           3.3736    3.0307    1.7768 C.3     1  UNL1       -0.0274
      9 H           2.4323    2.4931    1.6981 H       1  UNL1        0.0288
     10 H           4.1936    2.3121    1.8291 H       1  UNL1        0.0288
     11 C           3.5796    4.0015    0.6210 C.3     1  UNL1        0.0477
     12 H           3.9879    3.5384   -0.2825 H       1  UNL1        0.0560
     13 H           2.6401    4.5089    0.3673 H       1  UNL1        0.0560
@<TRIPOS>BOND
     1    12    11    1
     2    13    11    1
     3    11     1    1
     4    11     8    1
     5     1     2    1
     6     9     8    1
     7     8    10    1
     8     8     5    1
     9     2     3    1
    10     2     4    1
    11     2     5    1
    12     5     6    1
    13     5     7    1
