@<TRIPOS>MOLECULE
1
 35 37 0 0 0
SMALL
GASTEIGER

@<TRIPOS>ATOM
      1 O           6.2522    7.6845   -1.0626 O.3     1  UNL1        0.0000
      2 SI          7.3671    8.6344   -1.7281 Si      1  UNL1        0.0000
      3 C           7.9251    9.8939   -0.4253 C.ar    1  UNL1        0.0000
      4 C           7.1899   10.0202    0.7508 C.ar    1  UNL1        0.0000
      5 C           7.5632   10.9235    1.7298 C.ar    1  UNL1        0.0000
      6 C           8.6855   11.7143    1.5474 C.ar    1  UNL1        0.0000
      7 C           9.4337   11.5933    0.3880 C.ar    1  UNL1        0.0000
      8 C           9.0549   10.6893   -0.5877 C.ar    1  UNL1        0.0000
      9 H           9.6485   10.5894   -1.4858 H       1  UNL1        0.0000
     10 H          10.3150   12.2032    0.2472 H       1  UNL1        0.0000
     11 H           8.9805   12.4206    2.3103 H       1  UNL1        0.0000
     12 H           6.9797   11.0075    2.6353 H       1  UNL1        0.0000
     13 H           6.3183    9.3900    0.8969 H       1  UNL1        0.0000
     14 C           6.5904    9.4264   -3.2685 C.ar    1  UNL1        0.0000
     15 C           5.3836    8.9479   -3.7735 C.ar    1  UNL1        0.0000
     16 C           4.8122    9.5064   -4.9036 C.ar    1  UNL1        0.0000
     17 C           5.4413   10.5564   -5.5512 C.ar    1  UNL1        0.0000
     18 C           6.6420   11.0444   -5.0616 C.ar    1  UNL1        0.0000
     19 C           7.2076   10.4820   -3.9316 C.ar    1  UNL1        0.0000
     20 H           8.1419   10.8686   -3.5517 H       1  UNL1        0.0000
     21 H           7.1353   11.8659   -5.5619 H       1  UNL1        0.0000
     22 H           4.9969   10.9961   -6.4328 H       1  UNL1        0.0000
     23 H           3.8725    9.1239   -5.2753 H       1  UNL1        0.0000
     24 H           4.8809    8.1350   -3.2649 H       1  UNL1        0.0000
     25 C           8.8294    7.5217   -2.2498 C.ar    1  UNL1        0.0000
     26 C           9.2376    7.4040   -3.5752 C.ar    1  UNL1        0.0000
     27 C          10.2761    6.5607   -3.9324 C.ar    1  UNL1        0.0000
     28 C          10.9265    5.8139   -2.9640 C.ar    1  UNL1        0.0000
     29 C          10.5353    5.9203   -1.6389 C.ar    1  UNL1        0.0000
     30 C           9.4994    6.7687   -1.2871 C.ar    1  UNL1        0.0000
     31 H           9.2021    6.8531   -0.2505 H       1  UNL1        0.0000
     32 H          11.0428    5.3438   -0.8781 H       1  UNL1        0.0000
     33 H          11.7365    5.1541   -3.2408 H       1  UNL1        0.0000
     34 H          10.5791    6.4849   -4.9671 H       1  UNL1        0.0000
     35 H           8.7335    7.9838   -4.3357 H       1  UNL1        0.0000
@<TRIPOS>BOND
     1    22    17    1
     2    21    18    1
     3    17    18   ar
     4    17    16   ar
     5    23    16    1
     6    18    19   ar
     7    34    27    1
     8    16    15   ar
     9    35    26    1
    10    27    26   ar
    11    27    28   ar
    12    19    20    1
    13    19    14   ar
    14    15    14   ar
    15    15    24    1
    16    26    25   ar
    17    14     2    1
    18    33    28    1
    19    28    29   ar
    20    25     2    1
    21    25    30   ar
    22     2     1    1
    23     2     3    1
    24    29    30   ar
    25    29    32    1
    26     9     8    1
    27    30    31    1
    28     8     3   ar
    29     8     7   ar
    30     3     4   ar
    31    10     7    1
    32     7     6   ar
    33     4    13    1
    34     4     5   ar
    35     6     5   ar
    36     6    11    1
    37     5    12    1
