@<TRIPOS>MOLECULE
1
 35 37 0 0 0
SMALL
GASTEIGER

@<TRIPOS>ATOM
      1 O          14.7148    3.6301    9.4596 O.3     1  UNL1        0.0000
      2 SI         15.8131    2.4919    9.3104 Si      1  UNL1        0.0000
      3 C          15.2134    1.1066    8.1484 C.ar    1  UNL1        0.0000
      4 C          14.6881   -0.0739    8.6634 C.ar    1  UNL1        0.0000
      5 H          14.6664   -0.2158    9.7351 H       1  UNL1        0.0000
      6 C          14.1977   -1.0646    7.8319 C.ar    1  UNL1        0.0000
      7 H          13.7898   -1.9725    8.2536 H       1  UNL1        0.0000
      8 C          14.2259   -0.8924    6.4584 C.ar    1  UNL1        0.0000
      9 H          13.8438   -1.6641    5.8053 H       1  UNL1        0.0000
     10 C          14.7461    0.2751    5.9258 C.ar    1  UNL1        0.0000
     11 H          14.7706    0.4160    4.8538 H       1  UNL1        0.0000
     12 C          15.2309    1.2618    6.7664 C.ar    1  UNL1        0.0000
     13 H          15.6328    2.1733    6.3454 H       1  UNL1        0.0000
     14 C          16.2078    1.6867   10.9907 C.ar    1  UNL1        0.0000
     15 C          17.3025    0.8493   11.1811 C.ar    1  UNL1        0.0000
     16 H          17.9661    0.6526   10.3508 H       1  UNL1        0.0000
     17 C          17.5504    0.2668   12.4112 C.ar    1  UNL1        0.0000
     18 H          18.4037   -0.3848   12.5393 H       1  UNL1        0.0000
     19 C          16.7064    0.5202   13.4801 C.ar    1  UNL1        0.0000
     20 H          16.8987    0.0676   14.4425 H       1  UNL1        0.0000
     21 C          15.6145    1.3547   13.3100 C.ar    1  UNL1        0.0000
     22 H          14.9495    1.5534   14.1381 H       1  UNL1        0.0000
     23 C          15.3669    1.9267   12.0729 C.ar    1  UNL1        0.0000
     24 H          14.4966    2.5685   11.9347 H       1  UNL1        0.0000
     25 C          17.4385    3.2245    8.6357 C.ar    1  UNL1        0.0000
     26 C          18.2911    2.5048    7.8065 C.ar    1  UNL1        0.0000
     27 H          18.0217    1.4972    7.5232 H       1  UNL1        0.0000
     28 C          19.4696    3.0566    7.3356 C.ar    1  UNL1        0.0000
     29 H          20.1179    2.4799    6.6907 H       1  UNL1        0.0000
     30 C          19.8196    4.3487    7.6895 C.ar    1  UNL1        0.0000
     31 H          20.7388    4.7827    7.3222 H       1  UNL1        0.0000
     32 C          18.9862    5.0800    8.5194 C.ar    1  UNL1        0.0000
     33 H          19.2560    6.0881    8.8035 H       1  UNL1        0.0000
     34 C          17.8115    4.5185    8.9872 C.ar    1  UNL1        0.0000
     35 H          17.1623    5.0906    9.6398 H       1  UNL1        0.0000
@<TRIPOS>BOND
     1    11    10    1
     2     9     8    1
     3    10     8   ar
     4    10    12   ar
     5    13    12    1
     6     8     6   ar
     7    29    28    1
     8    12     3   ar
     9    31    30    1
    10    28    30   ar
    11    28    26   ar
    12    27    26    1
    13    30    32   ar
    14    26    25   ar
    15     6     7    1
    16     6     4   ar
    17     3     4   ar
    18     3     2    1
    19    32    33    1
    20    32    34   ar
    21    25    34   ar
    22    25     2    1
    23     4     5    1
    24    34    35    1
    25     2     1    1
    26     2    14    1
    27    16    15    1
    28    14    15   ar
    29    14    23   ar
    30    15    17   ar
    31    24    23    1
    32    23    21   ar
    33    17    18    1
    34    17    19   ar
    35    21    19   ar
    36    21    22    1
    37    19    20    1
