@<TRIPOS>MOLECULE
1
 13 13 0 0 0
SMALL
GASTEIGER

@<TRIPOS>ATOM
      1 O           6.2536    4.9689   -1.0959 O.3     1  UNL1       -0.3798
      2 C           6.2732    4.9708   -2.5382 C.3     1  UNL1        0.0477
      3 H           5.2784    4.6580   -2.8826 H       1  UNL1        0.0560
      4 H           6.4690    5.9894   -2.8897 H       1  UNL1        0.0560
      5 C           7.3592    3.9855   -2.9656 C.3     1  UNL1       -0.0274
      6 H           8.3150    4.4983   -3.0747 H       1  UNL1        0.0288
      7 H           7.1120    3.4918   -3.9022 H       1  UNL1        0.0288
      8 C           7.4075    3.0305   -1.7767 C.3     1  UNL1       -0.0274
      9 H           8.3485    2.4924   -1.6983 H       1  UNL1        0.0288
     10 H           6.5872    2.3122   -1.8290 H       1  UNL1        0.0288
     11 C           7.2021    4.0012   -0.6207 C.3     1  UNL1        0.0477
     12 H           6.7936    3.5381    0.2827 H       1  UNL1        0.0560
     13 H           8.1419    4.5080   -0.3669 H       1  UNL1        0.0560
@<TRIPOS>BOND
     1     7     5    1
     2     6     5    1
     3     5     2    1
     4     5     8    1
     5     4     2    1
     6     3     2    1
     7     2     1    1
     8    10     8    1
     9     8     9    1
    10     8    11    1
    11     1    11    1
    12    11    13    1
    13    11    12    1
