@<TRIPOS>MOLECULE
2
 35 37 0 0 0
SMALL
GASTEIGER

@<TRIPOS>ATOM
      1 SI          3.4145    8.6344    1.7280 Si      1  UNL1        0.0000
      2 O           4.5296    7.6843    1.0629 O.3     1  UNL1        0.0000
      3 C           2.8567    9.8938    0.4251 C.ar    1  UNL1        0.0000
      4 C           3.5919   10.0203   -0.7509 C.ar    1  UNL1        0.0000
      5 C           3.2186   10.9235   -1.7300 C.ar    1  UNL1        0.0000
      6 C           2.0962   11.7142   -1.5477 C.ar    1  UNL1        0.0000
      7 C           1.3479   11.5930   -0.3883 C.ar    1  UNL1        0.0000
      8 C           1.7268   10.6890    0.5874 C.ar    1  UNL1        0.0000
      9 C           4.1911    9.4264    3.2684 C.ar    1  UNL1        0.0000
     10 C           5.3979    8.9480    3.7734 C.ar    1  UNL1        0.0000
     11 C           5.9693    9.5064    4.9036 C.ar    1  UNL1        0.0000
     12 C           5.3400   10.5561    5.5513 C.ar    1  UNL1        0.0000
     13 C           4.1393   11.0441    5.0618 C.ar    1  UNL1        0.0000
     14 C           3.5737   10.4818    3.9317 C.ar    1  UNL1        0.0000
     15 C           1.9520    7.5219    2.2496 C.ar    1  UNL1        0.0000
     16 C           1.5441    7.4038    3.5750 C.ar    1  UNL1        0.0000
     17 C           0.5055    6.5606    3.9322 C.ar    1  UNL1        0.0000
     18 C          -0.1452    5.8142    2.9637 C.ar    1  UNL1        0.0000
     19 C           0.2455    5.9210    1.6386 C.ar    1  UNL1        0.0000
     20 C           1.2815    6.7693    1.2867 C.ar    1  UNL1        0.0000
     21 H           4.4637    9.3902   -0.8970 H       1  UNL1        0.0000
     22 H           3.8022   11.0077   -2.6354 H       1  UNL1        0.0000
     23 H           1.8011   12.4204   -2.3106 H       1  UNL1        0.0000
     24 H           0.4664   12.2027   -0.2476 H       1  UNL1        0.0000
     25 H           1.1331   10.5890    1.4854 H       1  UNL1        0.0000
     26 H           5.9007    8.1352    3.2646 H       1  UNL1        0.0000
     27 H           6.9090    9.1239    5.2752 H       1  UNL1        0.0000
     28 H           5.7844   10.9958    6.4329 H       1  UNL1        0.0000
     29 H           3.6458   11.8654    5.5622 H       1  UNL1        0.0000
     30 H           2.6393   10.8682    3.5519 H       1  UNL1        0.0000
     31 H           2.0486    7.9832    4.3356 H       1  UNL1        0.0000
     32 H           0.2029    6.4845    4.9670 H       1  UNL1        0.0000
     33 H          -0.9553    5.1544    3.2405 H       1  UNL1        0.0000
     34 H          -0.2623    5.3449    0.8777 H       1  UNL1        0.0000
     35 H           1.5786    6.8541    0.2501 H       1  UNL1        0.0000
@<TRIPOS>BOND
     1    22     5    1
     2    23     6    1
     3     5     6   ar
     4     5     4   ar
     5     6     7   ar
     6    21     4    1
     7     4     3   ar
     8     7    24    1
     9     7     8   ar
    10    35    20    1
    11     3     8   ar
    12     3     1    1
    13     8    25    1
    14    34    19    1
    15     2     1    1
    16    20    19   ar
    17    20    15   ar
    18    19    18   ar
    19     1    15    1
    20     1     9    1
    21    15    16   ar
    22    18    33    1
    23    18    17   ar
    24    26    10    1
    25     9    10   ar
    26     9    14   ar
    27    30    14    1
    28    16    17   ar
    29    16    31    1
    30    10    11   ar
    31    14    13   ar
    32    17    32    1
    33    11    27    1
    34    11    12   ar
    35    13    12   ar
    36    13    29    1
    37    12    28    1
