@<TRIPOS>MOLECULE
4
 44 43 0 0 0
SMALL
GASTEIGER

@<TRIPOS>ATOM
      1 SI          2.0963    7.7749    2.8308 Si      1  UNL1        0.0000
      2 O           2.6056    7.2476    4.2835 O.3     1  UNL1        0.0000
      3 O           1.5596    6.4841    2.0116 O.3     1  UNL1        0.0000
      4 O           3.3050    8.5510    2.0564 O.3     1  UNL1        0.0000
      5 O           0.9346    8.8967    2.8862 O.3     1  UNL1        0.0000
      6 C           2.2587    5.4807    1.2713 C.3     1  UNL1        0.0000
      7 C           3.5966    7.7410    5.1850 C.3     1  UNL1        0.0000
      8 C          -0.4435    8.8049    3.2242 C.3     1  UNL1        0.0000
      9 C           1.3516    4.2465    1.2793 C.3     1  UNL1        0.0000
     10 H           1.1930    3.9146    2.3017 H       1  UNL1        0.0000
     11 H           1.8043    3.4407    0.7088 H       1  UNL1        0.0000
     12 H           0.3870    4.4924    0.8430 H       1  UNL1        0.0000
     13 C           3.5994    9.2687    5.2063 C.3     1  UNL1        0.0000
     14 H           3.9688    9.6480    4.2509 H       1  UNL1        0.0000
     15 H           4.2454    9.6319    6.0013 H       1  UNL1        0.0000
     16 H           2.5890    9.6376    5.3660 H       1  UNL1        0.0000
     17 C           3.6079    5.1611    1.9091 C.3     1  UNL1        0.0000
     18 H           4.2743    6.0252    1.8230 H       1  UNL1        0.0000
     19 H           4.0674    4.3144    1.4055 H       1  UNL1        0.0000
     20 H           3.4676    4.9227    2.9600 H       1  UNL1        0.0000
     21 C           4.9688    7.2218    4.7468 C.3     1  UNL1        0.0000
     22 H           4.9716    6.1345    4.7307 H       1  UNL1        0.0000
     23 H           5.7353    7.5692    5.4343 H       1  UNL1        0.0000
     24 H           5.2075    7.5939    3.7405 H       1  UNL1        0.0000
     25 C           2.4667    5.9972   -0.1532 C.3     1  UNL1        0.0000
     26 H           1.5143    6.2986   -0.5824 H       1  UNL1        0.0000
     27 H           2.9110    5.2231   -0.7730 H       1  UNL1        0.0000
     28 H           3.1382    6.8581   -0.1296 H       1  UNL1        0.0000
     29 C           3.2247    7.1833    6.5631 C.3     1  UNL1        0.0000
     30 H           2.2540    7.5648    6.8684 H       1  UNL1        0.0000
     31 H           3.9692    7.4704    7.3000 H       1  UNL1        0.0000
     32 H           3.1679    6.0993    6.5178 H       1  UNL1        0.0000
     33 C          -0.6170    7.9975    4.5080 C.3     1  UNL1        0.0000
     34 H          -0.2309    6.9946    4.3551 H       1  UNL1        0.0000
     35 H          -1.6660    7.9474    4.7868 H       1  UNL1        0.0000
     36 H          -0.0547    8.4593    5.3146 H       1  UNL1        0.0000
     37 C          -1.1935    8.1337    2.0739 C.3     1  UNL1        0.0000
     38 H          -1.0670    8.7129    1.1635 H       1  UNL1        0.0000
     39 H          -2.2522    8.0540    2.3050 H       1  UNL1        0.0000
     40 H          -0.7779    7.1438    1.9148 H       1  UNL1        0.0000
     41 C          -0.9313   10.2428    3.4201 C.3     1  UNL1        0.0000
     42 H          -0.3906   10.7101    4.2386 H       1  UNL1        0.0000
     43 H          -1.9941   10.2532    3.6448 H       1  UNL1        0.0000
     44 H          -0.7508   10.8180    2.5165 H       1  UNL1        0.0000
@<TRIPOS>BOND
     1    27    25    1
     2    26    25    1
     3    25    28    1
     4    25     6    1
     5    11     9    1
     6    12     9    1
     7    38    37    1
     8     6     9    1
     9     6    17    1
    10     6     3    1
    11     9    10    1
    12    19    17    1
    13    18    17    1
    14    17    20    1
    15    40    37    1
    16     3     1    1
    17     4     1    1
    18    37    39    1
    19    37     8    1
    20    44    41    1
    21     1     5    1
    22     1     2    1
    23     5     8    1
    24     8    41    1
    25     8    33    1
    26    41    43    1
    27    41    42    1
    28    24    21    1
    29    14    13    1
    30     2     7    1
    31    34    33    1
    32    33    35    1
    33    33    36    1
    34    22    21    1
    35    21     7    1
    36    21    23    1
    37     7    13    1
    38     7    29    1
    39    13    16    1
    40    13    15    1
    41    32    29    1
    42    29    30    1
    43    29    31    1
