@<TRIPOS>MOLECULE
5
 44 43 0 0 0
SMALL
GASTEIGER

@<TRIPOS>ATOM
      1 SI          4.0342   11.7899   -0.6416 Si      1  UNL1        0.0000
      2 O           2.6450   11.5858   -1.4469 O.3     1  UNL1        0.0000
      3 O           5.2102   11.9970   -1.7291 O.3     1  UNL1        0.0000
      4 O           3.8990   13.0992    0.3004 O.3     1  UNL1        0.0000
      5 O           4.3359   10.4634    0.2734 O.3     1  UNL1        0.0000
      6 C           6.6261   12.0904   -1.5857 C.3     1  UNL1        0.0000
      7 C           2.0715   10.3987   -1.9902 C.3     1  UNL1        0.0000
      8 C           3.3923   13.2480    1.6266 C.3     1  UNL1        0.0000
      9 C           3.1482    9.4746   -2.5566 C.3     1  UNL1        0.0000
     10 H           3.7598   10.0282   -3.2643 H       1  UNL1        0.0000
     11 H           2.6915    8.6260   -3.0596 H       1  UNL1        0.0000
     12 H           3.7934    9.1080   -1.7549 H       1  UNL1        0.0000
     13 C           1.2892    9.6887   -0.8799 C.3     1  UNL1        0.0000
     14 H           1.9614    9.4130   -0.0617 H       1  UNL1        0.0000
     15 H           0.8158    8.7900   -1.2667 H       1  UNL1        0.0000
     16 H           0.5227   10.3524   -0.4863 H       1  UNL1        0.0000
     17 C           2.2200   12.3017    1.8875 C.3     1  UNL1        0.0000
     18 H           1.4832   12.4171    1.0966 H       1  UNL1        0.0000
     19 H           1.7587   12.5318    2.8447 H       1  UNL1        0.0000
     20 H           2.5588   11.2609    1.9047 H       1  UNL1        0.0000
     21 C           1.1251   10.8564   -3.1044 C.3     1  UNL1        0.0000
     22 H           0.3919   11.5507   -2.7035 H       1  UNL1        0.0000
     23 H           0.6105   10.0045   -3.5401 H       1  UNL1        0.0000
     24 H           1.6924   11.3669   -3.8771 H       1  UNL1        0.0000
     25 C           7.1927   11.9874   -3.0052 C.3     1  UNL1        0.0000
     26 H           6.9595   11.0138   -3.4271 H       1  UNL1        0.0000
     27 H           8.2706   12.1212   -2.9932 H       1  UNL1        0.0000
     28 H           6.7447   12.7528   -3.6328 H       1  UNL1        0.0000
     29 C           7.1653   10.9468   -0.7200 C.3     1  UNL1        0.0000
     30 H           6.8562   11.0674    0.3243 H       1  UNL1        0.0000
     31 H           8.2517   10.9304   -0.7611 H       1  UNL1        0.0000
     32 H           6.7843    9.9863   -1.0806 H       1  UNL1        0.0000
     33 C           6.9786   13.4406   -0.9625 C.3     1  UNL1        0.0000
     34 H           6.5985   14.2440   -1.5874 H       1  UNL1        0.0000
     35 H           8.0556   13.5412   -0.8596 H       1  UNL1        0.0000
     36 H           6.5116   13.5190    0.0144 H       1  UNL1        0.0000
     37 C           4.5294   12.9655    2.6122 C.3     1  UNL1        0.0000
     38 H           4.9069   11.9496    2.4667 H       1  UNL1        0.0000
     39 H           4.1765   13.0680    3.6352 H       1  UNL1        0.0000
     40 H           5.3460   13.6654    2.4499 H       1  UNL1        0.0000
     41 C           2.9300   14.7043    1.7387 C.3     1  UNL1        0.0000
     42 H           3.7538   15.3696    1.4963 H       1  UNL1        0.0000
     43 H           2.5840   14.9167    2.7464 H       1  UNL1        0.0000
     44 H           2.1235   14.8882    1.0347 H       1  UNL1        0.0000
@<TRIPOS>BOND
     1    24    21    1
     2    28    25    1
     3    23    21    1
     4    26    25    1
     5    10     9    1
     6    21    22    1
     7    21     7    1
     8    11     9    1
     9    25    27    1
    10    25     6    1
    11     9     7    1
    12     9    12    1
    13     7     2    1
    14     7    13    1
    15     3     6    1
    16     3     1    1
    17    34    33    1
    18     6    33    1
    19     6    29    1
    20     2     1    1
    21    15    13    1
    22    32    29    1
    23    33    35    1
    24    33    36    1
    25    13    16    1
    26    13    14    1
    27    31    29    1
    28    29    30    1
    29     1     5    1
    30     1     4    1
    31     4     8    1
    32    44    41    1
    33    18    17    1
    34    42    41    1
    35     8    41    1
    36     8    17    1
    37     8    37    1
    38    41    43    1
    39    17    20    1
    40    17    19    1
    41    40    37    1
    42    38    37    1
    43    37    39    1
