@<TRIPOS>MOLECULE
1
 32 34 0 0 0
SMALL
GASTEIGER

@<TRIPOS>ATOM
      1 O          20.2815    3.6505    3.7091 O.3     1  UNL1       -0.2866
      2 C          19.4608    4.4715    4.3392 C.ar    1  UNL1        0.1943
      3 C          19.0946    4.2243    5.6823 C.ar    1  UNL1        0.0294
      4 C          18.2339    5.1053    6.3280 C.ar    1  UNL1       -0.0503
      5 C          17.7347    6.2198    5.6803 C.ar    1  UNL1       -0.0604
      6 C          18.0759    6.4553    4.3610 C.ar    1  UNL1       -0.0503
      7 C          18.9258    5.5972    3.6713 C.ar    1  UNL1        0.0294
      8 C          19.6088    3.0386    6.3921 C.ar    1  UNL1       -0.0142
      9 C          20.9466    2.6490    6.2818 C.ar    1  UNL1       -0.0539
     10 C          21.4220    1.5662    7.0060 C.ar    1  UNL1       -0.0612
     11 C          20.5772    0.8512    7.8388 C.ar    1  UNL1       -0.0617
     12 C          19.2491    1.2271    7.9520 C.ar    1  UNL1       -0.0612
     13 C          18.7711    2.3108    7.2406 C.ar    1  UNL1       -0.0539
     14 C          19.2466    5.8476    2.2561 C.ar    1  UNL1       -0.0142
     15 C          20.5233    5.6119    1.7456 C.ar    1  UNL1       -0.0539
     16 C          20.8028    5.8369    0.4095 C.ar    1  UNL1       -0.0612
     17 C          19.8167    6.3079   -0.4409 C.ar    1  UNL1       -0.0617
     18 C          18.5496    6.5617    0.0565 C.ar    1  UNL1       -0.0612
     19 C          18.2656    6.3316    1.3896 C.ar    1  UNL1       -0.0539
     20 H          17.9767    4.9241    7.3615 H       1  UNL1        0.0625
     21 H          17.0815    6.9032    6.2014 H       1  UNL1        0.0618
     22 H          17.6975    7.3337    3.8584 H       1  UNL1        0.0625
     23 H          21.6367    3.2476    5.6977 H       1  UNL1        0.0624
     24 H          22.4630    1.2880    6.9293 H       1  UNL1        0.0618
     25 H          20.9539    0.0090    8.4002 H       1  UNL1        0.0618
     26 H          18.5838    0.6760    8.6002 H       1  UNL1        0.0618
     27 H          17.7357    2.6000    7.3440 H       1  UNL1        0.0624
     28 H          21.3108    5.2799    2.4099 H       1  UNL1        0.0624
     29 H          21.7964    5.6487    0.0283 H       1  UNL1        0.0618
     30 H          20.0362    6.4782   -1.4847 H       1  UNL1        0.0618
     31 H          17.7743    6.9302   -0.5994 H       1  UNL1        0.0618
     32 H          17.2655    6.5110    1.7568 H       1  UNL1        0.0624
@<TRIPOS>BOND
     1    30    17    1
     2    31    18    1
     3    17    18   ar
     4    17    16   ar
     5    29    16    1
     6    18    19   ar
     7    16    15   ar
     8    19    32    1
     9    19    14   ar
    10    15    14   ar
    11    15    28    1
    12    14     7    1
    13     7     2   ar
    14     7     6   ar
    15     1     2    1
    16    22     6    1
    17     2     3   ar
    18     6     5   ar
    19     5    21    1
    20     5     4   ar
    21     3     4   ar
    22     3     8    1
    23    23     9    1
    24     9     8   ar
    25     9    10   ar
    26     4    20    1
    27     8    13   ar
    28    24    10    1
    29    10    11   ar
    30    13    27    1
    31    13    12   ar
    32    11    12   ar
    33    11    25    1
    34    12    26    1
