@<TRIPOS>MOLECULE
1
 32 34 0 0 0
SMALL
GASTEIGER

@<TRIPOS>ATOM
      1 O          21.8379    1.2127    3.5762 O.3     1  UNL1       -0.2866
      2 C          22.8541    0.4045    3.8324 C.ar    1  UNL1        0.1943
      3 C          24.0163    0.8755    4.4828 C.ar    1  UNL1        0.0294
      4 C          25.0357   -0.0194    4.7883 C.ar    1  UNL1       -0.0503
      5 C          24.9315   -1.3603    4.4693 C.ar    1  UNL1       -0.0604
      6 C          23.7941   -1.8280    3.8351 C.ar    1  UNL1       -0.0503
      7 C          22.7574   -0.9666    3.5052 C.ar    1  UNL1        0.0294
      8 C          24.1346    2.2954    4.8575 C.ar    1  UNL1       -0.0142
      9 C          24.6184    2.6609    6.1132 C.ar    1  UNL1       -0.0539
     10 C          24.6888    3.9915    6.4820 C.ar    1  UNL1       -0.0612
     11 C          24.2857    4.9825    5.6024 C.ar    1  UNL1       -0.0617
     12 C          23.8300    4.6348    4.3412 C.ar    1  UNL1       -0.0612
     13 C          23.7554    3.3035    3.9719 C.ar    1  UNL1       -0.0539
     14 C          21.5440   -1.4520    2.8255 C.ar    1  UNL1       -0.0142
     15 C          21.0378   -0.7620    1.7225 C.ar    1  UNL1       -0.0539
     16 C          19.8812   -1.1981    1.0966 C.ar    1  UNL1       -0.0612
     17 C          19.2262   -2.3297    1.5533 C.ar    1  UNL1       -0.0617
     18 C          19.7444   -3.0407    2.6229 C.ar    1  UNL1       -0.0612
     19 C          20.8901   -2.6027    3.2595 C.ar    1  UNL1       -0.0539
     20 H          25.9301    0.3529    5.2668 H       1  UNL1        0.0625
     21 H          25.7365   -2.0380    4.7095 H       1  UNL1        0.0618
     22 H          23.7106   -2.8717    3.5694 H       1  UNL1        0.0625
     23 H          24.9277    1.8949    6.8102 H       1  UNL1        0.0624
     24 H          25.0568    4.2574    7.4621 H       1  UNL1        0.0618
     25 H          24.3343    6.0209    5.8946 H       1  UNL1        0.0618
     26 H          23.5394    5.4066    3.6421 H       1  UNL1        0.0618
     27 H          23.4382    3.0344    2.9723 H       1  UNL1        0.0624
     28 H          21.6067    0.0624    1.3007 H       1  UNL1        0.0624
     29 H          19.5091   -0.6650    0.2328 H       1  UNL1        0.0618
     30 H          18.3237   -2.6684    1.0669 H       1  UNL1        0.0618
     31 H          19.2480   -3.9354    2.9673 H       1  UNL1        0.0618
     32 H          21.2805   -3.1483    4.1060 H       1  UNL1        0.0624
@<TRIPOS>BOND
     1    29    16    1
     2    30    17    1
     3    16    17   ar
     4    16    15   ar
     5    28    15    1
     6    17    18   ar
     7    15    14   ar
     8    18    31    1
     9    18    19   ar
    10    14    19   ar
    11    14     7    1
    12    27    13    1
    13    19    32    1
    14     7     2   ar
    15     7     6   ar
    16    22     6    1
    17     1     2    1
    18    26    12    1
    19     2     3   ar
    20     6     5   ar
    21    13    12   ar
    22    13     8   ar
    23    12    11   ar
    24     5    21    1
    25     5     4   ar
    26     3     4   ar
    27     3     8    1
    28     4    20    1
    29     8     9   ar
    30    11    25    1
    31    11    10   ar
    32     9    10   ar
    33     9    23    1
    34    10    24    1
