@<TRIPOS>MOLECULE
1
 8 7 0 0 0
SMALL
GASTEIGER

@<TRIPOS>ATOM
      1 O          -1.4395    0.5296   15.4268 O.3     1  UNL1       -0.0619
      2 S          -1.5550    1.9647   15.4094 S.3     1  UNL1        0.1076
      3 O          -2.1268    2.5349   14.2236 O.3     1  UNL1       -0.0619
      4 O          -0.4949    2.7248   16.0054 O.3     1  UNL1       -0.0619
      5 C          -2.9718    2.1852   16.6451 C.3     1  UNL1        0.5278
      6 F          -2.6633    1.6733   17.8452 F       1  UNL1       -0.1499
      7 F          -3.2995    3.4685   16.8298 F       1  UNL1       -0.1499
      8 F          -4.0687    1.5480   16.2135 F       1  UNL1       -0.1499
@<TRIPOS>BOND
     1     3     2    1
     2     2     1    1
     3     2     4    1
     4     2     5    1
     5     8     5    1
     6     5     7    1
     7     5     6    1
