@<TRIPOS>MOLECULE
1
 13 13 0 0 0
SMALL
GASTEIGER

@<TRIPOS>ATOM
      1 O          11.2041    5.7581    3.1583 O.3     1  UNL1       -0.3798
      2 C          12.2841    6.5320    2.6479 C.3     1  UNL1        0.0477
      3 H          12.9336    5.8726    2.0720 H       1  UNL1        0.0560
      4 H          12.8567    6.9504    3.4875 H       1  UNL1        0.0560
      5 C          11.6494    7.6569    1.8110 C.3     1  UNL1       -0.0274
      6 H          12.1530    8.6044    1.9930 H       1  UNL1        0.0288
      7 H          11.7088    7.4382    0.7458 H       1  UNL1        0.0288
      8 C          10.1876    7.6782    2.2876 C.3     1  UNL1       -0.0274
      9 H           9.5231    7.2939    1.5145 H       1  UNL1        0.0288
     10 H           9.8520    8.6714    2.5750 H       1  UNL1        0.0288
     11 C          10.2036    6.7147    3.4771 C.3     1  UNL1        0.0477
     12 H           9.2571    6.1953    3.6228 H       1  UNL1        0.0560
     13 H          10.4823    7.2447    4.4007 H       1  UNL1        0.0560
@<TRIPOS>BOND
     1     7     5    1
     2     9     8    1
     3     5     6    1
     4     5     8    1
     5     5     2    1
     6     3     2    1
     7     8    10    1
     8     8    11    1
     9     2     1    1
    10     2     4    1
    11     1    11    1
    12    11    12    1
    13    11    13    1
