@<TRIPOS>MOLECULE
1
 13 13 0 0 0
SMALL
GASTEIGER

@<TRIPOS>ATOM
      1 O          12.6419    3.5501    1.0571 O.3     1  UNL1       -0.3798
      2 C          12.2152    4.0231   -0.2292 C.3     1  UNL1        0.0477
      3 H          11.4528    4.7903   -0.0780 H       1  UNL1        0.0560
      4 H          11.7755    3.1881   -0.7912 H       1  UNL1        0.0560
      5 C          13.4704    4.5361   -0.9225 C.3     1  UNL1       -0.0274
      6 H          13.7173    5.5404   -0.5743 H       1  UNL1        0.0288
      7 H          13.3664    4.5511   -2.0042 H       1  UNL1        0.0288
      8 C          14.5090    3.5312   -0.4304 C.3     1  UNL1       -0.0274
      9 H          15.5266    3.9108   -0.4747 H       1  UNL1        0.0288
     10 H          14.4503    2.6138   -1.0170 H       1  UNL1        0.0288
     11 C          14.0566    3.2785    1.0067 C.3     1  UNL1        0.0477
     12 H          14.2281    2.2481    1.3311 H       1  UNL1        0.0560
     13 H          14.5616    3.9560    1.7061 H       1  UNL1        0.0560
@<TRIPOS>BOND
     1     7     5    1
     2    10     8    1
     3     5     6    1
     4     5     8    1
     5     5     2    1
     6     4     2    1
     7     9     8    1
     8     8    11    1
     9     2     3    1
    10     2     1    1
    11    11     1    1
    12    11    12    1
    13    11    13    1
