@<TRIPOS>MOLECULE
1
 13 13 0 0 0
SMALL
GASTEIGER

@<TRIPOS>ATOM
      1 O           9.5343    3.7993    5.2024 O.3     1  UNL1       -0.3798
      2 C          10.0174    4.4112    6.4129 C.3     1  UNL1        0.0477
      3 H          10.6973    5.2253    6.1487 H       1  UNL1        0.0560
      4 H          10.5760    3.6580    6.9832 H       1  UNL1        0.0560
      5 C           8.7911    4.8843    7.1865 C.3     1  UNL1       -0.0274
      6 H           8.9632    4.8853    8.2597 H       1  UNL1        0.0288
      7 H           8.5037    5.8885    6.8720 H       1  UNL1        0.0288
      8 C           7.7390    3.8714    6.7441 C.3     1  UNL1       -0.0274
      9 H           6.7193    4.2247    6.8732 H       1  UNL1        0.0288
     10 H           7.8650    2.9338    7.2862 H       1  UNL1        0.0288
     11 C           8.1027    3.6880    5.2766 C.3     1  UNL1        0.0477
     12 H           7.8109    2.7144    4.8751 H       1  UNL1        0.0560
     13 H           7.6491    4.4775    4.6630 H       1  UNL1        0.0560
@<TRIPOS>BOND
     1    13    11    1
     2    12    11    1
     3     1    11    1
     4     1     2    1
     5    11     8    1
     6     3     2    1
     7     2     4    1
     8     2     5    1
     9     8     9    1
    10     8     5    1
    11     8    10    1
    12     7     5    1
    13     5     6    1
