@<TRIPOS>MOLECULE
1
 36 36 0 0 0
SMALL
GASTEIGER

@<TRIPOS>ATOM
      1 O          -3.2468    0.8365    9.6700 O.3     1  UNL1       -0.2873
      2 C          -3.3199   -0.1056   10.6194 C.ar    1  UNL1        0.1863
      3 C          -4.4686   -0.9321   10.7322 C.ar    1  UNL1        0.0049
      4 C          -4.6377   -1.6598   11.9002 C.ar    1  UNL1       -0.0544
      5 H          -5.5278   -2.2473   12.0429 H       1  UNL1        0.0622
      6 C          -3.6868   -1.6552   12.9008 C.ar    1  UNL1       -0.0610
      7 H          -3.8586   -2.1984   13.8179 H       1  UNL1        0.0618
      8 C          -2.4814   -1.0176   12.6865 C.ar    1  UNL1       -0.0544
      9 H          -1.7108   -1.1114   13.4322 H       1  UNL1        0.0622
     10 C          -2.2538   -0.2674   11.5428 C.ar    1  UNL1        0.0049
     11 C          -5.4364   -1.1095    9.5680 C.3     1  UNL1       -0.0090
     12 C          -4.6128   -1.5615    8.3513 C.3     1  UNL1       -0.0559
     13 H          -5.2568   -1.6702    7.4816 H       1  UNL1        0.0238
     14 H          -4.1399   -2.5205    8.5572 H       1  UNL1        0.0238
     15 H          -3.8339   -0.8395    8.1065 H       1  UNL1        0.0238
     16 C          -6.1807    0.1922    9.2596 C.3     1  UNL1       -0.0559
     17 H          -5.4730    0.9784    8.9910 H       1  UNL1        0.0238
     18 H          -6.7593    0.5064   10.1272 H       1  UNL1        0.0238
     19 H          -6.8579    0.0375    8.4214 H       1  UNL1        0.0238
     20 C          -6.4930   -2.1888    9.8346 C.3     1  UNL1       -0.0559
     21 H          -7.1555   -1.9013   10.6478 H       1  UNL1        0.0238
     22 H          -6.0337   -3.1472   10.0640 H       1  UNL1        0.0238
     23 H          -7.0986   -2.3143    8.9396 H       1  UNL1        0.0238
     24 C          -0.8691    0.3028   11.2529 C.3     1  UNL1       -0.0090
     25 C           0.1926   -0.1794   12.2505 C.3     1  UNL1       -0.0559
     26 H           1.1653    0.1880   11.9304 H       1  UNL1        0.0238
     27 H           0.2387   -1.2651   12.2843 H       1  UNL1        0.0238
     28 H           0.0067    0.2031   13.2515 H       1  UNL1        0.0238
     29 C          -0.8957    1.8342   11.3174 C.3     1  UNL1       -0.0559
     30 H          -1.6188    2.2392   10.6034 H       1  UNL1        0.0238
     31 H           0.0878    2.2325   11.0736 H       1  UNL1        0.0238
     32 H          -1.1634    2.1543   12.3240 H       1  UNL1        0.0238
     33 C          -0.4345   -0.1898    9.8632 C.3     1  UNL1       -0.0559
     34 H          -1.1603    0.0718    9.0921 H       1  UNL1        0.0238
     35 H          -0.3251   -1.2732    9.8752 H       1  UNL1        0.0238
     36 H           0.5208    0.2537    9.5907 H       1  UNL1        0.0238
@<TRIPOS>BOND
     1    13    12    1
     2    15    12    1
     3    12    14    1
     4    12    11    1
     5    19    16    1
     6    23    20    1
     7    17    16    1
     8    34    33    1
     9    16    11    1
    10    16    18    1
    11    11    20    1
    12    11     3    1
    13    36    33    1
    14     1     2    1
    15    20    22    1
    16    20    21    1
    17    33    35    1
    18    33    24    1
    19    30    29    1
    20     2     3   ar
    21     2    10   ar
    22     3     4   ar
    23    31    29    1
    24    24    29    1
    25    24    10    1
    26    24    25    1
    27    29    32    1
    28    10     8   ar
    29     4     5    1
    30     4     6   ar
    31    26    25    1
    32    25    27    1
    33    25    28    1
    34     8     6   ar
    35     8     9    1
    36     6     7    1
