@<TRIPOS>MOLECULE
1
 13 13 0 0 0
SMALL
GASTEIGER

@<TRIPOS>ATOM
      1 O           3.5435   13.3374   -0.0096 O.3     1  UNL1       -0.3798
      2 C           3.7022   14.7158   -0.3313 C.3     1  UNL1        0.0477
      3 H           4.1406   14.8049   -1.3364 H       1  UNL1        0.0560
      4 H           4.3800   15.1630    0.3946 H       1  UNL1        0.0560
      5 C           2.2971   15.3330   -0.3020 C.3     1  UNL1       -0.0274
      6 H           2.1153   15.8303    0.6486 H       1  UNL1        0.0288
      7 H           2.1773   16.0612   -1.1015 H       1  UNL1        0.0288
      8 C           1.3669   14.1211   -0.4699 C.3     1  UNL1       -0.0274
      9 H           0.7678   13.9756    0.4264 H       1  UNL1        0.0288
     10 H           0.6980   14.2205   -1.3219 H       1  UNL1        0.0288
     11 C           2.3387   12.9517   -0.6613 C.3     1  UNL1        0.0477
     12 H           2.5398   12.7930   -1.7319 H       1  UNL1        0.0560
     13 H           1.9853   12.0181   -0.2240 H       1  UNL1        0.0560
@<TRIPOS>BOND
     1    12    11    1
     2     3     2    1
     3    10     8    1
     4     7     5    1
     5    11     8    1
     6    11    13    1
     7    11     1    1
     8     8     5    1
     9     8     9    1
    10     2     5    1
    11     2     1    1
    12     2     4    1
    13     5     6    1
