@<TRIPOS>MOLECULE
1
 13 13 0 0 0
SMALL
GASTEIGER

@<TRIPOS>ATOM
      1 O           7.0129   10.0320    1.5166 O.3     1  UNL1       -0.3798
      2 C           6.9689    8.6514    1.9096 C.3     1  UNL1        0.0477
      3 H           6.2822    8.1130    1.2430 H       1  UNL1        0.0560
      4 H           6.5848    8.5864    2.9299 H       1  UNL1        0.0560
      5 C           8.3890    8.1131    1.7775 C.3     1  UNL1       -0.0274
      6 H           8.9607    8.3245    2.6817 H       1  UNL1        0.0288
      7 H           8.4037    7.0425    1.5894 H       1  UNL1        0.0288
      8 C           8.9199    8.9416    0.6122 C.3     1  UNL1       -0.0274
      9 H           8.5609    8.5340   -0.3342 H       1  UNL1        0.0288
     10 H          10.0049    9.0006    0.5833 H       1  UNL1        0.0288
     11 C           8.2811   10.2962    0.8936 C.3     1  UNL1        0.0477
     12 H           8.8986   10.8803    1.5876 H       1  UNL1        0.0560
     13 H           8.1096   10.8870   -0.0085 H       1  UNL1        0.0560
@<TRIPOS>BOND
     1     9     8    1
     2    13    11    1
     3    10     8    1
     4     8    11    1
     5     8     5    1
     6    11     1    1
     7    11    12    1
     8     3     2    1
     9     1     2    1
    10     7     5    1
    11     5     2    1
    12     5     6    1
    13     2     4    1
