@<TRIPOS>MOLECULE
1
 13 13 0 0 0
SMALL
GASTEIGER

@<TRIPOS>ATOM
      1 O           5.6060   11.3842   -0.9413 O.3     1  UNL1       -0.3798
      2 C           5.8580   12.2716   -2.0215 C.3     1  UNL1        0.0477
      3 H           6.2124   13.2206   -1.6208 H       1  UNL1        0.0560
      4 H           4.9300   12.4330   -2.5898 H       1  UNL1        0.0560
      5 C           6.8937   11.5562   -2.8918 C.3     1  UNL1       -0.0274
      6 H           7.8979   11.7705   -2.5264 H       1  UNL1        0.0288
      7 H           6.8316   11.8692   -3.9311 H       1  UNL1        0.0288
      8 C           6.5390   10.0745   -2.6928 C.3     1  UNL1       -0.0274
      9 H           6.0998    9.6383   -3.5878 H       1  UNL1        0.0288
     10 H           7.4197    9.4909   -2.4295 H       1  UNL1        0.0288
     11 C           5.5155   10.0968   -1.5431 C.3     1  UNL1        0.0477
     12 H           4.4978    9.9459   -1.9286 H       1  UNL1        0.0560
     13 H           5.7130    9.3470   -0.7778 H       1  UNL1        0.0560
@<TRIPOS>BOND
     1     7     5    1
     2     9     8    1
     3     5     8    1
     4     5     6    1
     5     5     2    1
     6     8    10    1
     7     8    11    1
     8     4     2    1
     9     2     3    1
    10     2     1    1
    11    12    11    1
    12    11     1    1
    13    11    13    1
