@<TRIPOS>MOLECULE
1
 13 13 0 0 0
SMALL
GASTEIGER

@<TRIPOS>ATOM
      1 O           8.3327    2.8070   11.3050 O.3     1  UNL1       -0.3798
      2 C           8.6285    1.5464   10.6814 C.3     1  UNL1        0.0477
      3 H           9.0172    0.8546   11.4419 H       1  UNL1        0.0560
      4 H           9.3950    1.7033    9.9192 H       1  UNL1        0.0560
      5 C           7.3128    1.0379   10.1079 C.3     1  UNL1       -0.0274
      6 H           7.1246    1.4964    9.1368 H       1  UNL1        0.0288
      7 H           7.3041   -0.0434    9.9990 H       1  UNL1        0.0288
      8 C           6.3179    1.5499   11.1459 C.3     1  UNL1       -0.0274
      9 H           5.3032    1.6341   10.7652 H       1  UNL1        0.0288
     10 H           6.3150    0.8965   12.0200 H       1  UNL1        0.0288
     11 C           6.9112    2.9120   11.4926 C.3     1  UNL1        0.0477
     12 H           6.7145    3.2180   12.5243 H       1  UNL1        0.0560
     13 H           6.5208    3.6866   10.8210 H       1  UNL1        0.0560
@<TRIPOS>BOND
     1     6     5    1
     2     4     2    1
     3     7     5    1
     4     5     2    1
     5     5     8    1
     6     2     1    1
     7     2     3    1
     8     9     8    1
     9    13    11    1
    10     8    11    1
    11     8    10    1
    12     1    11    1
    13    11    12    1
