@<TRIPOS>MOLECULE
1
 13 13 0 0 0
SMALL
GASTEIGER

@<TRIPOS>ATOM
      1 O           1.7248    5.7499   16.7190 O.3     1  UNL1       -0.3798
      2 C           0.9452    6.9370   16.5105 C.3     1  UNL1        0.0477
      3 H           0.7240    7.3835   17.4904 H       1  UNL1        0.0560
      4 H           0.0026    6.6560   16.0276 H       1  UNL1        0.0560
      5 C           1.7887    7.8842   15.6586 C.3     1  UNL1       -0.0274
      6 H           1.5901    8.9268   15.8933 H       1  UNL1        0.0288
      7 H           1.5969    7.7163   14.5980 H       1  UNL1        0.0288
      8 C           3.2065    7.4471   16.0161 C.3     1  UNL1       -0.0274
      9 H           3.9425    7.7166   15.2637 H       1  UNL1        0.0288
     10 H           3.5043    7.8661   16.9780 H       1  UNL1        0.0288
     11 C           3.0278    5.9403   16.1375 C.3     1  UNL1        0.0477
     12 H           3.7753    5.4722   16.7836 H       1  UNL1        0.0560
     13 H           3.0506    5.4562   15.1517 H       1  UNL1        0.0560
@<TRIPOS>BOND
     1     7     5    1
     2    13    11    1
     3     9     8    1
     4     5     6    1
     5     5     8    1
     6     5     2    1
     7     8    11    1
     8     8    10    1
     9     4     2    1
    10    11     1    1
    11    11    12    1
    12     2     1    1
    13     2     3    1
