@<TRIPOS>MOLECULE
1
 13 13 0 0 0
SMALL
GASTEIGER

@<TRIPOS>ATOM
      1 O           1.3132    2.4143   20.5820 O.3     1  UNL1       -0.3798
      2 C           0.8490    1.0622   20.5132 C.3     1  UNL1        0.0477
      3 H           1.4208    0.5094   19.7536 H       1  UNL1        0.0560
      4 H          -0.2064    1.0812   20.2304 H       1  UNL1        0.0560
      5 C           1.1093    0.4798   21.8954 C.3     1  UNL1       -0.0274
      6 H           1.1222   -0.6068   21.8917 H       1  UNL1        0.0288
      7 H           0.3535    0.8287   22.6005 H       1  UNL1        0.0288
      8 C           2.4695    1.0963   22.2133 C.3     1  UNL1       -0.0274
      9 H           3.2626    0.5155   21.7426 H       1  UNL1        0.0288
     10 H           2.6685    1.1631   23.2798 H       1  UNL1        0.0288
     11 C           2.3698    2.4793   21.5651 C.3     1  UNL1        0.0477
     12 H           2.0957    3.2508   22.2935 H       1  UNL1        0.0560
     13 H           3.3089    2.7673   21.0788 H       1  UNL1        0.0560
@<TRIPOS>BOND
     1     3     2    1
     2     4     2    1
     3     2     1    1
     4     2     5    1
     5     1    11    1
     6    13    11    1
     7    11     8    1
     8    11    12    1
     9     9     8    1
    10     6     5    1
    11     5     8    1
    12     5     7    1
    13     8    10    1
