@<TRIPOS>MOLECULE
1
 13 13 0 0 0
SMALL
GASTEIGER

@<TRIPOS>ATOM
      1 O           9.2713    4.0805   14.1569 O.3     1  UNL1       -0.3798
      2 C           8.9578    2.7716   14.6273 C.3     1  UNL1        0.0477
      3 H           8.8382    2.1189   13.7623 H       1  UNL1        0.0560
      4 H           9.7924    2.3972   15.2355 H       1  UNL1        0.0560
      5 C           7.6804    2.9019   15.4789 C.3     1  UNL1       -0.0274
      6 H           6.8173    2.4671   14.9773 H       1  UNL1        0.0288
      7 H           7.8063    2.3950   16.4341 H       1  UNL1        0.0288
      8 C           7.5202    4.4190   15.6604 C.3     1  UNL1       -0.0274
      9 H           7.2870    4.7016   16.6837 H       1  UNL1        0.0288
     10 H           6.7443    4.8117   15.0030 H       1  UNL1        0.0288
     11 C           8.8821    4.9478   15.2124 C.3     1  UNL1        0.0477
     12 H           8.8483    5.9695   14.8355 H       1  UNL1        0.0560
     13 H           9.6097    4.8810   16.0360 H       1  UNL1        0.0560
@<TRIPOS>BOND
     1     3     2    1
     2     1     2    1
     3     1    11    1
     4     2     4    1
     5     2     5    1
     6    12    11    1
     7     6     5    1
     8    10     8    1
     9    11     8    1
    10    11    13    1
    11     5     8    1
    12     5     7    1
    13     8     9    1
