@<TRIPOS>MOLECULE
1
 13 13 0 0 0
SMALL
GASTEIGER

@<TRIPOS>ATOM
      1 O          11.5094    6.2559   13.2232 O.3     1  UNL1       -0.3798
      2 C          12.3831    5.8229   14.2830 C.3     1  UNL1        0.0477
      3 H          13.2660    5.3478   13.8383 H       1  UNL1        0.0560
      4 H          11.8579    5.0813   14.8901 H       1  UNL1        0.0560
      5 C          12.7737    7.0719   15.0657 C.3     1  UNL1       -0.0274
      6 H          13.7527    6.9725   15.5271 H       1  UNL1        0.0288
      7 H          12.0359    7.2873   15.8400 H       1  UNL1        0.0288
      8 C          12.7247    8.1415   13.9783 C.3     1  UNL1       -0.0274
      9 H          12.6072    9.1487   14.3695 H       1  UNL1        0.0288
     10 H          13.6233    8.0976   13.3620 H       1  UNL1        0.0288
     11 C          11.5117    7.6910   13.1747 C.3     1  UNL1        0.0477
     12 H          10.5821    8.0657   13.6243 H       1  UNL1        0.0560
     13 H          11.5510    8.0006   12.1264 H       1  UNL1        0.0560
@<TRIPOS>BOND
     1    13    11    1
     2    11     1    1
     3    11    12    1
     4    11     8    1
     5     1     2    1
     6    10     8    1
     7     3     2    1
     8     8     9    1
     9     8     5    1
    10     2     4    1
    11     2     5    1
    12     5     6    1
    13     5     7    1
