@<TRIPOS>MOLECULE
1
 13 13 0 0 0
SMALL
GASTEIGER

@<TRIPOS>ATOM
      1 O          16.8506    0.8623    9.1728 O.3     1  UNL1       -0.3798
      2 C          18.0819    0.8487    9.9225 C.3     1  UNL1        0.0477
      3 H          17.9425    1.4441   10.8349 H       1  UNL1        0.0560
      4 H          18.8735    1.3003    9.3183 H       1  UNL1        0.0560
      5 C          18.3556   -0.6123   10.2533 C.3     1  UNL1       -0.0274
      6 H          18.9841   -0.7236   11.1326 H       1  UNL1        0.0288
      7 H          18.8322   -1.1053    9.4051 H       1  UNL1        0.0288
      8 C          16.9392   -1.1440   10.4504 C.3     1  UNL1       -0.0274
      9 H          16.8645   -2.2214   10.3277 H       1  UNL1        0.0288
     10 H          16.5646   -0.8706   11.4380 H       1  UNL1        0.0288
     11 C          16.1778   -0.3919    9.3624 C.3     1  UNL1        0.0477
     12 H          16.1996   -0.9519    8.4169 H       1  UNL1        0.0560
     13 H          15.1353   -0.1905    9.6321 H       1  UNL1        0.0560
@<TRIPOS>BOND
     1    12    11    1
     2     1    11    1
     3     1     2    1
     4     4     2    1
     5    11    13    1
     6    11     8    1
     7     7     5    1
     8     2     5    1
     9     2     3    1
    10     5     8    1
    11     5     6    1
    12     9     8    1
    13     8    10    1
