@<TRIPOS>MOLECULE
1
 13 13 0 0 0
SMALL
GASTEIGER

@<TRIPOS>ATOM
      1 O          16.8397    3.7266    4.9253 O.3     1  UNL1       -0.3798
      2 C          16.1296    4.9615    4.7414 C.3     1  UNL1        0.0477
      3 H          16.0341    5.4529    5.7193 H       1  UNL1        0.0560
      4 H          15.1271    4.7385    4.3579 H       1  UNL1        0.0560
      5 C          16.9491    5.8178    3.7750 C.3     1  UNL1       -0.0274
      6 H          16.6114    5.6651    2.7491 H       1  UNL1        0.0288
      7 H          16.8812    6.8758    4.0147 H       1  UNL1        0.0288
      8 C          18.3545    5.2519    3.9602 C.3     1  UNL1       -0.0274
      9 H          18.8153    5.6592    4.8609 H       1  UNL1        0.0288
     10 H          19.0061    5.4337    3.1099 H       1  UNL1        0.0288
     11 C          18.0526    3.7727    4.1532 C.3     1  UNL1        0.0477
     12 H          17.8816    3.2732    3.1897 H       1  UNL1        0.0560
     13 H          18.8377    3.2422    4.6982 H       1  UNL1        0.0560
@<TRIPOS>BOND
     1     6     5    1
     2    10     8    1
     3    12    11    1
     4     5     8    1
     5     5     7    1
     6     5     2    1
     7     8    11    1
     8     8     9    1
     9    11    13    1
    10    11     1    1
    11     4     2    1
    12     2     1    1
    13     2     3    1
