@<TRIPOS>MOLECULE
1
 32 34 0 0 0
SMALL
GASTEIGER

@<TRIPOS>ATOM
      1 O           6.9619    3.1278    4.9303 O.3     1  UNL1       -0.2866
      2 C           7.6824    2.0254    4.8265 C.ar    1  UNL1        0.1943
      3 C           7.8287    1.1560    5.9318 C.ar    1  UNL1        0.0294
      4 C           8.6603    0.0482    5.8254 C.ar    1  UNL1       -0.0503
      5 C           9.3526   -0.2204    4.6585 C.ar    1  UNL1       -0.0604
      6 C           9.2133    0.6243    3.5729 C.ar    1  UNL1       -0.0503
      7 C           8.3841    1.7372    3.6330 C.ar    1  UNL1        0.0294
      8 C           7.1171    1.4263    7.1936 C.ar    1  UNL1       -0.0142
      9 C           7.7822    1.3040    8.4130 C.ar    1  UNL1       -0.0539
     10 C           7.1231    1.5455    9.6036 C.ar    1  UNL1       -0.0612
     11 C           5.7858    1.9063    9.5997 C.ar    1  UNL1       -0.0617
     12 C           5.1121    2.0214    8.3957 C.ar    1  UNL1       -0.0612
     13 C           5.7714    1.7889    7.2007 C.ar    1  UNL1       -0.0539
     14 C           8.2479    2.6190    2.4611 C.ar    1  UNL1       -0.0142
     15 C           6.9939    3.0726    2.0434 C.ar    1  UNL1       -0.0539
     16 C           6.8855    3.8956    0.9342 C.ar    1  UNL1       -0.0612
     17 C           8.0181    4.2993    0.2462 C.ar    1  UNL1       -0.0617
     18 C           9.2642    3.8583    0.6573 C.ar    1  UNL1       -0.0612
     19 C           9.3780    3.0176    1.7485 C.ar    1  UNL1       -0.0539
     20 H           8.7487   -0.6203    6.6697 H       1  UNL1        0.0625
     21 H           9.9918   -1.0881    4.5937 H       1  UNL1        0.0618
     22 H           9.7333    0.4104    2.6504 H       1  UNL1        0.0625
     23 H           8.8286    1.0349    8.4224 H       1  UNL1        0.0624
     24 H           7.6548    1.4534   10.5398 H       1  UNL1        0.0618
     25 H           5.2718    2.0934   10.5309 H       1  UNL1        0.0618
     26 H           4.0644    2.2881    8.3826 H       1  UNL1        0.0618
     27 H           5.2274    1.8641    6.2668 H       1  UNL1        0.0624
     28 H           6.1011    2.7341    2.5669 H       1  UNL1        0.0624
     29 H           5.9140    4.2216    0.5898 H       1  UNL1        0.0618
     30 H           7.9257    4.9546   -0.6067 H       1  UNL1        0.0618
     31 H          10.1509    4.1699    0.1250 H       1  UNL1        0.0618
     32 H          10.3530    2.6831    2.0712 H       1  UNL1        0.0624
@<TRIPOS>BOND
     1    30    17    1
     2    31    18    1
     3    17    18   ar
     4    17    16   ar
     5    29    16    1
     6    18    19   ar
     7    16    15   ar
     8    19    32    1
     9    19    14   ar
    10    15    14   ar
    11    15    28    1
    12    14     7    1
    13    22     6    1
    14     6     7   ar
    15     6     5   ar
    16     7     2   ar
    17    21     5    1
    18     5     4   ar
    19     2     1    1
    20     2     3   ar
    21     4     3   ar
    22     4    20    1
    23     3     8    1
    24    27    13    1
    25     8    13   ar
    26     8     9   ar
    27    13    12   ar
    28    26    12    1
    29    12    11   ar
    30     9    23    1
    31     9    10   ar
    32    11    10   ar
    33    11    25    1
    34    10    24    1
