@<TRIPOS>MOLECULE
1
 32 34 0 0 0
SMALL
GASTEIGER

@<TRIPOS>ATOM
      1 O           4.2196    3.4241    4.6552 O.3     1  UNL1       -0.2866
      2 C           3.1024    2.7277    4.7950 C.ar    1  UNL1        0.1943
      3 C           2.9429    1.5045    4.1112 C.ar    1  UNL1        0.0294
      4 C           1.7732    0.7729    4.2437 C.ar    1  UNL1       -0.0503
      5 C           0.7504    1.2167    5.0626 C.ar    1  UNL1       -0.0604
      6 C           0.9042    2.4025    5.7552 C.ar    1  UNL1       -0.0503
      7 C           2.0561    3.1708    5.6330 C.ar    1  UNL1        0.0294
      8 C           4.0256    0.9778    3.2433 C.ar    1  UNL1       -0.0142
      9 C           3.9846    1.1576    1.8634 C.ar    1  UNL1       -0.0539
     10 C           4.9692    0.6163    1.0550 C.ar    1  UNL1       -0.0612
     11 C           5.9984   -0.1231    1.6131 C.ar    1  UNL1       -0.0617
     12 C           6.0366   -0.3236    2.9823 C.ar    1  UNL1       -0.0612
     13 C           5.0602    0.2276    3.7940 C.ar    1  UNL1       -0.0539
     14 C           2.1491    4.4378    6.3807 C.ar    1  UNL1       -0.0142
     15 C           1.8217    4.4723    7.7355 C.ar    1  UNL1       -0.0539
     16 C           1.8389    5.6640    8.4352 C.ar    1  UNL1       -0.0612
     17 C           2.1646    6.8455    7.7896 C.ar    1  UNL1       -0.0617
     18 C           2.4911    6.8228    6.4444 C.ar    1  UNL1       -0.0612
     19 C           2.4983    5.6270    5.7453 C.ar    1  UNL1       -0.0539
     20 H           1.6754   -0.1550    3.6980 H       1  UNL1        0.0625
     21 H          -0.1579    0.6419    5.1594 H       1  UNL1        0.0618
     22 H           0.1079    2.7624    6.3909 H       1  UNL1        0.0625
     23 H           3.1708    1.7143    1.4202 H       1  UNL1        0.0624
     24 H           4.9292    0.7672   -0.0140 H       1  UNL1        0.0618
     25 H           6.7636   -0.5489    0.9815 H       1  UNL1        0.0618
     26 H           6.8238   -0.9166    3.4227 H       1  UNL1        0.0618
     27 H           5.0818    0.0461    4.8597 H       1  UNL1        0.0624
     28 H           1.5578    3.5541    8.2417 H       1  UNL1        0.0624
     29 H           1.5904    5.6739    9.4866 H       1  UNL1        0.0618
     30 H           2.1648    7.7783    8.3338 H       1  UNL1        0.0618
     31 H           2.7438    7.7403    5.9314 H       1  UNL1        0.0618
     32 H           2.7510    5.6208    4.6944 H       1  UNL1        0.0624
@<TRIPOS>BOND
     1    24    10    1
     2    25    11    1
     3    10    11   ar
     4    10     9   ar
     5    23     9    1
     6    11    12   ar
     7     9     8   ar
     8    12    26    1
     9    12    13   ar
    10     8    13   ar
    11     8     3    1
    12    20     4    1
    13    13    27    1
    14     3     4   ar
    15     3     2   ar
    16     4     5   ar
    17     1     2    1
    18    32    19    1
    19     2     7   ar
    20     5    21    1
    21     5     6   ar
    22     7     6   ar
    23     7    14    1
    24    19    14   ar
    25    19    18   ar
    26     6    22    1
    27    31    18    1
    28    14    15   ar
    29    18    17   ar
    30    15    28    1
    31    15    16   ar
    32    17    30    1
    33    17    16   ar
    34    16    29    1
