@<TRIPOS>MOLECULE
1
 32 34 0 0 0
SMALL
GASTEIGER

@<TRIPOS>ATOM
      1 O           5.9181    5.6958    3.7631 O.3     1  UNL1       -0.2866
      2 C           6.0789    6.4346    2.6768 C.ar    1  UNL1        0.1943
      3 C           4.9671    6.7176    1.8514 C.ar    1  UNL1        0.0294
      4 C           5.1113    7.4973    0.7128 C.ar    1  UNL1       -0.0503
      5 C           6.3466    8.0004    0.3519 C.ar    1  UNL1       -0.0604
      6 C           7.4342    7.7585    1.1669 C.ar    1  UNL1       -0.0503
      7 C           7.3283    7.0084    2.3352 C.ar    1  UNL1        0.0294
      8 C           3.6136    6.2121    2.1670 C.ar    1  UNL1       -0.0142
      9 C           2.5764    7.1264    2.3470 C.ar    1  UNL1       -0.0539
     10 C           1.2796    6.6931    2.5534 C.ar    1  UNL1       -0.0612
     11 C           0.9961    5.3374    2.5635 C.ar    1  UNL1       -0.0617
     12 C           2.0172    4.4205    2.3788 C.ar    1  UNL1       -0.0612
     13 C           3.3230    4.8497    2.1950 C.ar    1  UNL1       -0.0539
     14 C           8.5407    6.8498    3.1574 C.ar    1  UNL1       -0.0142
     15 C           9.4212    7.9243    3.3002 C.ar    1  UNL1       -0.0539
     16 C          10.6082    7.7816    3.9920 C.ar    1  UNL1       -0.0612
     17 C          10.9506    6.5581    4.5437 C.ar    1  UNL1       -0.0617
     18 C          10.0760    5.4919    4.4288 C.ar    1  UNL1       -0.0612
     19 C           8.8730    5.6404    3.7621 C.ar    1  UNL1       -0.0539
     20 H           4.2421    7.6878    0.0989 H       1  UNL1        0.0625
     21 H           6.4580    8.5816   -0.5508 H       1  UNL1        0.0618
     22 H           8.4031    8.1454    0.8872 H       1  UNL1        0.0625
     23 H           2.7989    8.1838    2.3245 H       1  UNL1        0.0624
     24 H           0.4874    7.4130    2.6979 H       1  UNL1        0.0618
     25 H          -0.0166    4.9941    2.7127 H       1  UNL1        0.0618
     26 H           1.7875    3.3652    2.3777 H       1  UNL1        0.0618
     27 H           4.1132    4.1258    2.0276 H       1  UNL1        0.0624
     28 H           9.1634    8.8857    2.8805 H       1  UNL1        0.0624
     29 H          11.2731    8.6272    4.0961 H       1  UNL1        0.0618
     30 H          11.8888    6.4411    5.0662 H       1  UNL1        0.0618
     31 H          10.3334    4.5329    4.8542 H       1  UNL1        0.0618
     32 H           8.1931    4.8022    3.6890 H       1  UNL1        0.0624
@<TRIPOS>BOND
     1    21     5    1
     2    20     4    1
     3     5     4   ar
     4     5     6   ar
     5     4     3   ar
     6    22     6    1
     7     6     7   ar
     8     3     8    1
     9     3     2   ar
    10    27    13    1
    11     8    13   ar
    12     8     9   ar
    13    13    12   ar
    14    23     9    1
    15     7     2   ar
    16     7    14    1
    17     9    10   ar
    18    26    12    1
    19    12    11   ar
    20    10    11   ar
    21    10    24    1
    22    11    25    1
    23     2     1    1
    24    28    15    1
    25    14    15   ar
    26    14    19   ar
    27    15    16   ar
    28    32    19    1
    29    19    18   ar
    30    16    29    1
    31    16    17   ar
    32    18    17   ar
    33    18    31    1
    34    17    30    1
