@<TRIPOS>MOLECULE
2
 35 37 0 0 0
SMALL
GASTEIGER

@<TRIPOS>ATOM
      1 SI         10.5362    0.9030    3.5645 Si      1  UNL1        0.0000
      2 O          10.3612    1.0678    5.1425 O.3     1  UNL1        0.0000
      3 C          12.4466    2.0548    1.7261 C.ar    1  UNL1        0.0000
      4 H          11.8117    1.6620    0.9439 H       1  UNL1        0.0000
      5 C           6.6819    2.7726    1.6209 C.ar    1  UNL1        0.0000
      6 H           5.7891    3.2070    1.1942 H       1  UNL1        0.0000
      7 C           7.7855    0.9568    2.7301 C.ar    1  UNL1        0.0000
      8 H           7.7487   -0.0355    3.1593 H       1  UNL1        0.0000
      9 C          10.2979   -1.5266    2.0052 C.ar    1  UNL1        0.0000
     10 H          10.0027   -0.8815    1.1892 H       1  UNL1        0.0000
     11 C           9.0161    2.9152    2.1518 C.ar    1  UNL1        0.0000
     12 H           9.9448    3.4688    2.1320 H       1  UNL1        0.0000
     13 C          14.0730    3.0634    3.7227 C.ar    1  UNL1        0.0000
     14 H          14.7082    3.4531    4.5053 H       1  UNL1        0.0000
     15 C          11.0380   -3.1813    4.0941 C.ar    1  UNL1        0.0000
     16 H          11.3287   -3.8262    4.9116 H       1  UNL1        0.0000
     17 C           6.6398    1.5086    2.1851 C.ar    1  UNL1        0.0000
     18 H           5.7124    0.9525    2.1965 H       1  UNL1        0.0000
     19 C          13.5884    2.7618    1.3943 C.ar    1  UNL1        0.0000
     20 H          13.8447    2.9190    0.3560 H       1  UNL1        0.0000
     21 C          10.9927   -1.8104    4.2754 C.ar    1  UNL1        0.0000
     22 H          11.2451   -1.3743    5.2364 H       1  UNL1        0.0000
     23 C          10.7120   -3.7269    2.8631 C.ar    1  UNL1        0.0000
     24 H          10.7452   -4.7973    2.7180 H       1  UNL1        0.0000
     25 C          14.4029    3.2696    2.3932 C.ar    1  UNL1        0.0000
     26 H          15.2945    3.8228    2.1344 H       1  UNL1        0.0000
     27 C          10.3430   -2.8967    1.8176 C.ar    1  UNL1        0.0000
     28 H          10.0882   -3.3197    0.8560 H       1  UNL1        0.0000
     29 C          10.6200   -0.9636    3.2347 C.ar    1  UNL1        0.0000
     30 C          12.0993    1.8438    3.0559 C.ar    1  UNL1        0.0000
     31 C           8.9932    1.6489    2.7273 C.ar    1  UNL1        0.0000
     32 C          12.9308    2.3546    4.0488 C.ar    1  UNL1        0.0000
     33 H          12.6687    2.1814    5.0865 H       1  UNL1        0.0000
     34 C           7.8755    3.4741    1.6025 C.ar    1  UNL1        0.0000
     35 H           7.9164    4.4594    1.1596 H       1  UNL1        0.0000
@<TRIPOS>BOND
     1    20    19    1
     2    28    27    1
     3     4     3    1
     4    35    34    1
     5    10     9    1
     6     6     5    1
     7    19     3   ar
     8    19    25   ar
     9    34     5   ar
    10    34    11   ar
    11     5    17   ar
    12     3    30   ar
    13    27     9   ar
    14    27    23   ar
    15     9    29   ar
    16    12    11    1
    17    26    25    1
    18    11    31   ar
    19    17    18    1
    20    17     7   ar
    21    25    13   ar
    22    24    23    1
    23    31     7   ar
    24    31     1    1
    25     7     8    1
    26    23    15   ar
    27    30     1    1
    28    30    32   ar
    29    29     1    1
    30    29    21   ar
    31     1     2    1
    32    13    32   ar
    33    13    14    1
    34    32    33    1
    35    15    21   ar
    36    15    16    1
    37    21    22    1
