@<TRIPOS>MOLECULE
2
 37 38 0 0 0
SMALL
GASTEIGER

@<TRIPOS>ATOM
      1 SI         -1.0961    1.7038    3.8684 Si      1  UNL1        0.0000
      2 O           0.4494    2.0505    3.5717 O.3     1  UNL1        0.0000
      3 C          -1.5660    0.3049    2.6139 C.3     1  UNL1        0.0000
      4 C          -0.6527   -0.8988    2.8584 C.3     1  UNL1        0.0000
      5 C          -3.0255   -0.1239    2.7579 C.3     1  UNL1        0.0000
      6 C          -1.3247    0.8241    1.1944 C.3     1  UNL1        0.0000
      7 C          -1.1526    1.0702    5.6596 C.ar    1  UNL1        0.0000
      8 C           0.0549    0.8098    6.3039 C.ar    1  UNL1        0.0000
      9 C           0.0854    0.2965    7.5873 C.ar    1  UNL1        0.0000
     10 C          -1.0995    0.0330    8.2539 C.ar    1  UNL1        0.0000
     11 C          -2.3094    0.2864    7.6292 C.ar    1  UNL1        0.0000
     12 C          -2.3319    0.7980    6.3440 C.ar    1  UNL1        0.0000
     13 C          -2.0611    3.3009    3.4998 C.ar    1  UNL1        0.0000
     14 C          -1.4104    4.3003    2.7799 C.ar    1  UNL1        0.0000
     15 C          -2.0539    5.4739    2.4346 C.ar    1  UNL1        0.0000
     16 C          -3.3740    5.6684    2.8057 C.ar    1  UNL1        0.0000
     17 C          -4.0388    4.6854    3.5202 C.ar    1  UNL1        0.0000
     18 C          -3.3868    3.5136    3.8615 C.ar    1  UNL1        0.0000
     19 H           0.3930   -0.6015    2.7657 H       1  UNL1        0.0000
     20 H          -0.8496   -1.6846    2.1285 H       1  UNL1        0.0000
     21 H          -0.8054   -1.3079    3.8564 H       1  UNL1        0.0000
     22 H          -3.6915    0.7197    2.5867 H       1  UNL1        0.0000
     23 H          -3.2130   -0.5161    3.7555 H       1  UNL1        0.0000
     24 H          -3.2669   -0.9028    2.0340 H       1  UNL1        0.0000
     25 H          -0.2888    1.1494    1.0831 H       1  UNL1        0.0000
     26 H          -1.9743    1.6700    0.9736 H       1  UNL1        0.0000
     27 H          -1.5163    0.0402    0.4611 H       1  UNL1        0.0000
     28 H           0.9838    1.0179    5.7839 H       1  UNL1        0.0000
     29 H           1.0348    0.1008    8.0647 H       1  UNL1        0.0000
     30 H          -1.0822   -0.3690    9.2577 H       1  UNL1        0.0000
     31 H          -3.2377    0.0821    8.1461 H       1  UNL1        0.0000
     32 H          -3.2816    0.9882    5.8649 H       1  UNL1        0.0000
     33 H          -0.3772    4.1482    2.4880 H       1  UNL1        0.0000
     34 H          -1.5222    6.2314    1.8765 H       1  UNL1        0.0000
     35 H          -3.8852    6.5835    2.5399 H       1  UNL1        0.0000
     36 H          -5.0701    4.8339    3.8119 H       1  UNL1        0.0000
     37 H          -3.9156    2.7541    4.4192 H       1  UNL1        0.0000
@<TRIPOS>BOND
     1    27     6    1
     2    26     6    1
     3    25     6    1
     4     6     3    1
     5    34    15    1
     6    24     5    1
     7    20     4    1
     8    15    14   ar
     9    15    16   ar
    10    33    14    1
    11    35    16    1
    12    22     5    1
    13     3     5    1
    14     3     4    1
    15     3     1    1
    16     5    23    1
    17    19     4    1
    18    14    13   ar
    19    16    17   ar
    20     4    21    1
    21    13    18   ar
    22    13     1    1
    23    17    36    1
    24    17    18   ar
    25     2     1    1
    26    18    37    1
    27     1     7    1
    28     7     8   ar
    29     7    12   ar
    30    28     8    1
    31    32    12    1
    32     8     9   ar
    33    12    11   ar
    34     9    29    1
    35     9    10   ar
    36    11    31    1
    37    11    10   ar
    38    10    30    1
