@<TRIPOS>MOLECULE
2
 14 13 0 0 0
SMALL
GASTEIGER

@<TRIPOS>ATOM
      1 SI         -0.7953    8.4180    3.3116 Si      1  UNL1        0.0000
      2 O          -0.3662    9.8432    2.6970 O.3     1  UNL1        0.0000
      3 C          -2.4535    8.6104    4.2500 C.3     1  UNL1        0.0000
      4 C          -0.9995    7.1140    1.9203 C.3     1  UNL1        0.0000
      5 C           0.5772    7.8587    4.5382 C.3     1  UNL1        0.0000
      6 H          -2.3599    9.3103    5.0740 H       1  UNL1        0.0000
      7 H          -2.7707    7.6552    4.6539 H       1  UNL1        0.0000
      8 H          -3.2385    8.9730    3.5945 H       1  UNL1        0.0000
      9 H          -0.1354    7.1178    1.2617 H       1  UNL1        0.0000
     10 H          -1.8766    7.3202    1.3143 H       1  UNL1        0.0000
     11 H          -1.1035    6.1154    2.3320 H       1  UNL1        0.0000
     12 H           1.0257    8.7350    5.0139 H       1  UNL1        0.0000
     13 H           1.3703    7.3163    4.0254 H       1  UNL1        0.0000
     14 H           0.1992    7.2126    5.3255 H       1  UNL1        0.0000
@<TRIPOS>BOND
     1     9     4    1
     2    10     4    1
     3     4    11    1
     4     4     1    1
     5     2     1    1
     6     1     3    1
     7     1     5    1
     8     8     3    1
     9    13     5    1
    10     3     7    1
    11     3     6    1
    12     5    12    1
    13     5    14    1
