@<TRIPOS>MOLECULE
1
 13 13 0 0 0
SMALL
GASTEIGER

@<TRIPOS>ATOM
      1 O           2.5171    3.3193    6.0419 O.3     1  UNL1       -0.3798
      2 C           3.1776    3.5200    7.2969 C.3     1  UNL1        0.0477
      3 C           2.0575    3.7675    8.3000 C.3     1  UNL1       -0.0274
      4 C           0.9846    2.7905    7.8152 C.3     1  UNL1       -0.0274
      5 C           1.2657    2.6638    6.3098 C.3     1  UNL1        0.0477
      6 H           3.7403    2.6147    7.5639 H       1  UNL1        0.0560
      7 H           2.3682    3.5761    9.3231 H       1  UNL1        0.0288
      8 H          -0.0211    3.1534    8.0107 H       1  UNL1        0.0288
      9 H           0.5099    3.1602    5.6941 H       1  UNL1        0.0560
     10 H           3.8659    4.3587    7.1832 H       1  UNL1        0.0560
     11 H           1.7043    4.7957    8.2254 H       1  UNL1        0.0288
     12 H           1.1010    1.8251    8.3059 H       1  UNL1        0.0288
     13 H           1.3377    1.6097    6.0122 H       1  UNL1        0.0560
@<TRIPOS>BOND
     1     9     5    1
     2    13     5    1
     3     1     5    1
     4     1     2    1
     5     5     4    1
     6    10     2    1
     7     2     6    1
     8     2     3    1
     9     4     8    1
    10     4     3    1
    11     4    12    1
    12    11     3    1
    13     3     7    1
