@<TRIPOS>MOLECULE
1
 13 13 0 0 0
SMALL
GASTEIGER

@<TRIPOS>ATOM
      1 O           4.1460    2.7668   12.4149 O.3     1  UNL1       -0.3798
      2 C           2.8171    3.3286   12.4071 C.3     1  UNL1        0.0477
      3 H           2.7598    4.0498   13.2276 H       1  UNL1        0.0560
      4 H           2.0882    2.5294   12.5831 H       1  UNL1        0.0560
      5 C           2.6117    3.9980   11.0455 C.3     1  UNL1       -0.0274
      6 H           2.0578    4.9295   11.1322 H       1  UNL1        0.0288
      7 H           2.0742    3.3317   10.3699 H       1  UNL1        0.0288
      8 C           4.0431    4.2008   10.5568 C.3     1  UNL1       -0.0274
      9 H           4.1194    4.2659    9.4743 H       1  UNL1        0.0288
     10 H           4.4814    5.0925   11.0051 H       1  UNL1        0.0288
     11 C           4.7189    2.9563   11.1153 C.3     1  UNL1        0.0477
     12 H           4.4896    2.0788   10.4920 H       1  UNL1        0.0560
     13 H           5.7995    3.0629   11.2428 H       1  UNL1        0.0560
@<TRIPOS>BOND
     1     9     8    1
     2     7     5    1
     3    12    11    1
     4     8    10    1
     5     8     5    1
     6     8    11    1
     7     5     6    1
     8     5     2    1
     9    11    13    1
    10    11     1    1
    11     2     1    1
    12     2     4    1
    13     2     3    1
