@<TRIPOS>MOLECULE
1
 13 13 0 0 0
SMALL
GASTEIGER

@<TRIPOS>ATOM
      1 O           2.3105    0.5029   10.4249 O.3     1  UNL1       -0.3798
      2 C           3.4671    0.0111    9.7332 C.3     1  UNL1        0.0477
      3 H           4.1172   -0.4843   10.4613 H       1  UNL1        0.0560
      4 H           3.9879    0.8574    9.2595 H       1  UNL1        0.0560
      5 C           2.9073   -0.9436    8.6900 C.3     1  UNL1       -0.0274
      6 H           3.6154   -1.1695    7.8967 H       1  UNL1        0.0288
      7 H           2.6024   -1.8629    9.1912 H       1  UNL1        0.0288
      8 C           1.6860   -0.1671    8.2037 C.3     1  UNL1       -0.0274
      9 H           0.9085   -0.8172    7.8110 H       1  UNL1        0.0288
     10 H           1.9696    0.5412    7.4235 H       1  UNL1        0.0288
     11 C           1.2278    0.5708    9.4677 C.3     1  UNL1        0.0477
     12 H           1.0090    1.6258    9.2613 H       1  UNL1        0.0560
     13 H           0.3574    0.0971    9.9365 H       1  UNL1        0.0560
@<TRIPOS>BOND
     1    10     8    1
     2     9     8    1
     3     6     5    1
     4     8     5    1
     5     8    11    1
     6     5     7    1
     7     5     2    1
     8     4     2    1
     9    12    11    1
    10    11    13    1
    11    11     1    1
    12     2     1    1
    13     2     3    1
