@<TRIPOS>MOLECULE
1
 13 13 0 0 0
SMALL
GASTEIGER

@<TRIPOS>ATOM
      1 O           8.4131   12.3687   12.0579 O.3     1  UNL1       -0.3798
      2 C           9.1865   12.2361   10.8729 C.3     1  UNL1        0.0477
      3 H           8.7514   12.8620   10.0781 H       1  UNL1        0.0560
      4 H           9.1581   11.1912   10.5672 H       1  UNL1        0.0560
      5 C           8.7595   13.6519   12.5710 C.3     1  UNL1        0.0477
      6 H           8.5063   13.6672   13.6312 H       1  UNL1        0.0560
      7 H           8.1694   14.4220   12.0508 H       1  UNL1        0.0560
      8 C          10.2581   13.8507   12.2798 C.3     1  UNL1       -0.0274
      9 H          10.8530   13.7336   13.1827 H       1  UNL1        0.0288
     10 H          10.4418   14.8447   11.8754 H       1  UNL1        0.0288
     11 C          10.5755   12.7477   11.2570 C.3     1  UNL1       -0.0274
     12 H          11.1265   13.1168   10.3952 H       1  UNL1        0.0288
     13 H          11.1434   11.9459   11.7258 H       1  UNL1        0.0288
@<TRIPOS>BOND
     1     3     2    1
     2    12    11    1
     3     4     2    1
     4     2    11    1
     5     2     1    1
     6    11    13    1
     7    11     8    1
     8    10     8    1
     9     7     5    1
    10     1     5    1
    11     8     5    1
    12     8     9    1
    13     5     6    1
