@<TRIPOS>MOLECULE
1
 13 13 0 0 0
SMALL
GASTEIGER

@<TRIPOS>ATOM
      1 O          -1.1727    2.9930    2.9456 O.3     1  UNL1       -0.3798
      2 C          -1.7427    2.3850    1.8034 C.3     1  UNL1        0.0477
      3 C          -3.0663    1.7436    2.2644 C.3     1  UNL1       -0.0274
      4 C          -3.2050    2.2022    3.7227 C.3     1  UNL1       -0.0274
      5 C          -2.2446    3.3880    3.7827 C.3     1  UNL1        0.0477
      6 H          -1.9248    3.1551    1.0380 H       1  UNL1        0.0560
      7 H          -1.0198    1.6611    1.4195 H       1  UNL1        0.0560
      8 H          -3.0349    0.6588    2.1870 H       1  UNL1        0.0288
      9 H          -3.8969    2.1032    1.6591 H       1  UNL1        0.0288
     10 H          -4.2236    2.4796    3.9823 H       1  UNL1        0.0288
     11 H          -2.8677    1.4206    4.4036 H       1  UNL1        0.0288
     12 H          -1.8362    3.5863    4.7775 H       1  UNL1        0.0560
     13 H          -2.7143    4.3018    3.3886 H       1  UNL1        0.0560
@<TRIPOS>BOND
     1     6     2    1
     2     7     2    1
     3     9     3    1
     4     2     3    1
     5     2     1    1
     6     8     3    1
     7     3     4    1
     8     1     5    1
     9    13     5    1
    10     4     5    1
    11     4    10    1
    12     4    11    1
    13     5    12    1
