@<TRIPOS>MOLECULE
1
 15 14 0 0 0
SMALL
GASTEIGER

@<TRIPOS>ATOM
      1 O           2.3897    3.7125    4.0545 O.3     1  UNL1       -0.3803
      2 C           2.4787    3.5901    5.4871 C.3     1  UNL1        0.0448
      3 C           3.8722    3.2523    6.0138 C.3     1  UNL1       -0.0416
      4 C           3.2696    4.7324    3.5421 C.3     1  UNL1        0.0448
      5 C           2.9506    6.1341    4.0510 C.3     1  UNL1       -0.0416
      6 H           1.7852    2.7827    5.7442 H       1  UNL1        0.0557
      7 H           2.1296    4.5165    5.9559 H       1  UNL1        0.0557
      8 H           4.3113    2.4213    5.4662 H       1  UNL1        0.0252
      9 H           3.7867    2.9674    7.0589 H       1  UNL1        0.0252
     10 H           4.5452    4.1034    5.9569 H       1  UNL1        0.0252
     11 H           3.1421    4.6876    2.4593 H       1  UNL1        0.0557
     12 H           4.3071    4.4686    3.7769 H       1  UNL1        0.0557
     13 H           1.8791    6.3132    4.0153 H       1  UNL1        0.0252
     14 H           3.4458    6.8642    3.4173 H       1  UNL1        0.0252
     15 H           3.2986    6.2841    5.0696 H       1  UNL1        0.0252
@<TRIPOS>BOND
     1    11     4    1
     2    14     5    1
     3     4    12    1
     4     4     5    1
     5     4     1    1
     6    13     5    1
     7     5    15    1
     8     1     2    1
     9     8     3    1
    10     2     6    1
    11     2     7    1
    12     2     3    1
    13    10     3    1
    14     3     9    1
