@<TRIPOS>MOLECULE
2
 14 13 0 0 0
SMALL
GASTEIGER

@<TRIPOS>ATOM
      1 SI         14.1268    9.1132    3.6408 Si      1  UNL1        0.0000
      2 O          12.7170    8.3555    3.5931 O.3     1  UNL1        0.0000
      3 C          14.8077    9.0815    5.4356 C.3     1  UNL1        0.0000
      4 C          15.3607    8.1979    2.4794 C.3     1  UNL1        0.0000
      5 C          13.9219   10.9150    3.0239 C.3     1  UNL1        0.0000
      6 H          15.3107   10.0072    5.6941 H       1  UNL1        0.0000
      7 H          15.5190    8.2744    5.5872 H       1  UNL1        0.0000
      8 H          13.9900    8.9393    6.1384 H       1  UNL1        0.0000
      9 H          16.3526    8.6319    2.5443 H       1  UNL1        0.0000
     10 H          15.0499    8.2567    1.4393 H       1  UNL1        0.0000
     11 H          15.4464    7.1436    2.7352 H       1  UNL1        0.0000
     12 H          14.8459   11.4744    3.1288 H       1  UNL1        0.0000
     13 H          13.1535   11.4317    3.5920 H       1  UNL1        0.0000
     14 H          13.6349   10.9480    1.9763 H       1  UNL1        0.0000
@<TRIPOS>BOND
     1    10     4    1
     2    14     5    1
     3     4     9    1
     4     4    11    1
     5     4     1    1
     6     5    12    1
     7     5    13    1
     8     5     1    1
     9     2     1    1
    10     1     3    1
    11     3     7    1
    12     3     6    1
    13     3     8    1
