@<TRIPOS>MOLECULE
2
 14 13 0 0 0
SMALL
GASTEIGER

@<TRIPOS>ATOM
      1 SI          8.7958    5.1129    2.7521 Si      1  UNL1        0.0000
      2 O           9.8872    6.2857    2.8740 O.3     1  UNL1        0.0000
      3 C           9.4790    3.5903    3.7046 C.3     1  UNL1        0.0000
      4 C           7.1313    5.6791    3.5037 C.3     1  UNL1        0.0000
      5 C           8.5552    4.6589    0.8978 C.3     1  UNL1        0.0000
      6 H          10.0230    3.9447    4.5789 H       1  UNL1        0.0000
      7 H          10.1622    2.9923    3.1064 H       1  UNL1        0.0000
      8 H           8.6866    2.9332    4.0454 H       1  UNL1        0.0000
      9 H           6.7708    6.5910    3.0351 H       1  UNL1        0.0000
     10 H           7.2549    5.8837    4.5630 H       1  UNL1        0.0000
     11 H           6.3612    4.9224    3.3933 H       1  UNL1        0.0000
     12 H           9.4515    4.2308    0.4548 H       1  UNL1        0.0000
     13 H           8.2819    5.5279    0.3055 H       1  UNL1        0.0000
     14 H           7.7623    3.9272    0.7862 H       1  UNL1        0.0000
@<TRIPOS>BOND
     1    13     5    1
     2    12     5    1
     3    14     5    1
     4     5     1    1
     5     1     2    1
     6     1     4    1
     7     1     3    1
     8     9     4    1
     9     7     3    1
    10    11     4    1
    11     4    10    1
    12     3     8    1
    13     3     6    1
