@<TRIPOS>MOLECULE
2
 14 13 0 0 0
SMALL
GASTEIGER

@<TRIPOS>ATOM
      1 SI          5.3106    3.1698   11.2221 Si      1  UNL1        0.0000
      2 O           5.3387    4.0111    9.8401 O.3     1  UNL1        0.0000
      3 C           4.2962    1.5622   11.0110 C.3     1  UNL1        0.0000
      4 H           3.6605    1.6787   10.1377 H       1  UNL1        0.0000
      5 H           3.6539    1.3691   11.8633 H       1  UNL1        0.0000
      6 H           4.9240    0.6880   10.8643 H       1  UNL1        0.0000
      7 C           4.7289    4.1957   12.7259 C.3     1  UNL1        0.0000
      8 H           5.3508    5.0755   12.8716 H       1  UNL1        0.0000
      9 H           4.7517    3.6205   13.6466 H       1  UNL1        0.0000
     10 H           3.7101    4.5305   12.5601 H       1  UNL1        0.0000
     11 C           7.1680    2.7346   11.4361 C.3     1  UNL1        0.0000
     12 H           7.5466    2.1662   10.5939 H       1  UNL1        0.0000
     13 H           7.2938    2.1334   12.3287 H       1  UNL1        0.0000
     14 H           7.7852    3.6194   11.5442 H       1  UNL1        0.0000
@<TRIPOS>BOND
     1     2     1    1
     2     4     3    1
     3    12    11    1
     4     6     3    1
     5     3     1    1
     6     3     5    1
     7     1    11    1
     8     1     7    1
     9    11    14    1
    10    11    13    1
    11    10     7    1
    12     7     8    1
    13     7     9    1
