@<TRIPOS>MOLECULE
2
 14 13 0 0 0
SMALL
GASTEIGER

@<TRIPOS>ATOM
      1 SI          1.0177    3.8296   10.4402 Si      1  UNL1        0.0000
      2 O           2.5187    4.3523   10.3414 O.3     1  UNL1        0.0000
      3 C           0.6559    3.5302   12.2935 C.3     1  UNL1        0.0000
      4 H           1.3799    2.8553   12.7366 H       1  UNL1        0.0000
      5 H          -0.3291    3.0938   12.4174 H       1  UNL1        0.0000
      6 H           0.6779    4.4553   12.8605 H       1  UNL1        0.0000
      7 C          -0.2938    5.0632    9.7670 C.3     1  UNL1        0.0000
      8 H          -0.2272    6.0275   10.2624 H       1  UNL1        0.0000
      9 H          -1.3034    4.6909    9.9130 H       1  UNL1        0.0000
     10 H          -0.1567    5.2303    8.7011 H       1  UNL1        0.0000
     11 C           0.8106    2.2086    9.4376 C.3     1  UNL1        0.0000
     12 H           1.5148    2.2286    8.6080 H       1  UNL1        0.0000
     13 H          -0.1873    2.0885    9.0284 H       1  UNL1        0.0000
     14 H           1.0319    1.3301   10.0349 H       1  UNL1        0.0000
@<TRIPOS>BOND
     1    12    11    1
     2    10     7    1
     3    13    11    1
     4    11    14    1
     5    11     1    1
     6     7     9    1
     7     7     8    1
     8     7     1    1
     9     2     1    1
    10     1     3    1
    11     3     5    1
    12     3     4    1
    13     3     6    1
