@<TRIPOS>MOLECULE
2
 14 13 0 0 0
SMALL
GASTEIGER

@<TRIPOS>ATOM
      1 SI          2.8723    7.8753    9.7974 Si      1  UNL1        0.0000
      2 O           3.5421    6.5243    9.2203 O.3     1  UNL1        0.0000
      3 C           1.4007    8.3607    8.6721 C.3     1  UNL1        0.0000
      4 H           1.7379    8.8173    7.7451 H       1  UNL1        0.0000
      5 H           0.7556    9.0777    9.1701 H       1  UNL1        0.0000
      6 H           0.7982    7.4955    8.4147 H       1  UNL1        0.0000
      7 C           2.3220    7.6082   11.6062 C.3     1  UNL1        0.0000
      8 H           1.8754    6.6242   11.7144 H       1  UNL1        0.0000
      9 H           1.5946    8.3492   11.9239 H       1  UNL1        0.0000
     10 H           3.1652    7.6599   12.2901 H       1  UNL1        0.0000
     11 C           4.1669    9.2833    9.7042 C.3     1  UNL1        0.0000
     12 H           4.9052    9.2107   10.4962 H       1  UNL1        0.0000
     13 H           3.6762   10.2461    9.8038 H       1  UNL1        0.0000
     14 H           4.7013    9.2762    8.7594 H       1  UNL1        0.0000
@<TRIPOS>BOND
     1     4     3    1
     2     6     3    1
     3     3     5    1
     4     3     1    1
     5    14    11    1
     6     2     1    1
     7    11     1    1
     8    11    13    1
     9    11    12    1
    10     1     7    1
    11     7     8    1
    12     7     9    1
    13     7    10    1
