@<TRIPOS>MOLECULE
1
 24 25 0 0 0
SMALL
GASTEIGER

@<TRIPOS>ATOM
      1 O           5.5744    3.0526    4.6969 O.3     1  UNL1        0.0000
      2 B           5.5623    2.1000    3.8414 B       1  UNL1        0.0000
      3 C           6.9352    1.4115    3.3127 C.ar    1  UNL1        0.0000
      4 C           7.0928    0.7290    2.1120 C.ar    1  UNL1        0.0000
      5 F           6.0525    0.5955    1.2820 F       1  UNL1        0.0000
      6 C           8.3133    0.1802    1.7261 C.ar    1  UNL1        0.0000
      7 F           8.4280   -0.4678    0.5677 F       1  UNL1        0.0000
      8 C           9.4243    0.3132    2.5552 C.ar    1  UNL1        0.0000
      9 F          10.5961   -0.2034    2.1954 F       1  UNL1        0.0000
     10 C           9.3010    0.9965    3.7630 C.ar    1  UNL1        0.0000
     11 F          10.3583    1.1532    4.5614 F       1  UNL1        0.0000
     12 C           8.0644    1.5193    4.1091 C.ar    1  UNL1        0.0000
     13 F           7.9511    2.2018    5.2956 F       1  UNL1        0.0000
     14 C           4.2158    1.4113    3.2711 C.ar    1  UNL1        0.0000
     15 C           3.2479    2.1143    2.5680 C.ar    1  UNL1        0.0000
     16 F           3.4278    3.4238    2.3449 F       1  UNL1        0.0000
     17 C           2.0893    1.5127    2.0891 C.ar    1  UNL1        0.0000
     18 F           1.1806    2.2241    1.4169 F       1  UNL1        0.0000
     19 C           1.8755    0.1588    2.3259 C.ar    1  UNL1        0.0000
     20 F           0.7654   -0.4323    1.8829 F       1  UNL1        0.0000
     21 C           2.8232   -0.5742    3.0340 C.ar    1  UNL1        0.0000
     22 F           2.6209   -1.8721    3.2736 F       1  UNL1        0.0000
     23 C           3.9722    0.0620    3.4866 C.ar    1  UNL1        0.0000
     24 F           4.8787   -0.6566    4.1722 F       1  UNL1        0.0000
@<TRIPOS>BOND
     1     7     6    1
     2     5     4    1
     3    18    17    1
     4     6     4   ar
     5     6     8   ar
     6    20    19    1
     7    17    19   ar
     8    17    15   ar
     9     4     3   ar
    10     9     8    1
    11    19    21   ar
    12    16    15    1
    13     8    10   ar
    14    15    14   ar
    15    21    22    1
    16    21    23   ar
    17    14    23   ar
    18    14     2    1
    19     3     2    1
    20     3    12   ar
    21    23    24    1
    22    10    12   ar
    23    10    11    1
    24     2     1    1
    25    12    13    1
