@<TRIPOS>MOLECULE
1
 13 13 0 0 0
SMALL
GASTEIGER

@<TRIPOS>ATOM
      1 O          -2.7544   12.8017   -4.4669 O.3     1  UNL1       -0.3798
      2 C          -3.2704   11.6110   -3.8679 C.3     1  UNL1        0.0477
      3 H          -2.4428   10.9095   -3.7378 H       1  UNL1        0.0560
      4 H          -4.0493   11.1838   -4.5198 H       1  UNL1        0.0560
      5 C          -3.8678   12.0959   -2.5532 C.3     1  UNL1       -0.0274
      6 H          -3.0607   12.2937   -1.8472 H       1  UNL1        0.0288
      7 H          -4.5660   11.3850   -2.1186 H       1  UNL1        0.0288
      8 C          -4.5347   13.4054   -2.9816 C.3     1  UNL1       -0.0274
      9 H          -5.5720   13.2342   -3.2699 H       1  UNL1        0.0288
     10 H          -4.5104   14.1491   -2.1889 H       1  UNL1        0.0288
     11 C          -3.7030   13.8485   -4.1981 C.3     1  UNL1        0.0477
     12 H          -4.3246   13.9953   -5.0916 H       1  UNL1        0.0560
     13 H          -3.1345   14.7626   -4.0030 H       1  UNL1        0.0560
@<TRIPOS>BOND
     1    12    11    1
     2     4     2    1
     3     1    11    1
     4     1     2    1
     5    11    13    1
     6    11     8    1
     7     2     3    1
     8     2     5    1
     9     9     8    1
    10     8     5    1
    11     8    10    1
    12     5     7    1
    13     5     6    1
