@<TRIPOS>MOLECULE
1
 13 13 0 0 0
SMALL
GASTEIGER

@<TRIPOS>ATOM
      1 O          -1.1846   11.4110   -6.2799 O.3     1  UNL1       -0.3798
      2 C          -2.1252   11.2011   -7.3343 C.3     1  UNL1        0.0477
      3 H          -1.7575   11.6613   -8.2625 H       1  UNL1        0.0560
      4 H          -3.0682   11.6745   -7.0529 H       1  UNL1        0.0560
      5 C          -2.1928    9.6830   -7.4616 C.3     1  UNL1       -0.0274
      6 H          -2.6128    9.3625   -8.4113 H       1  UNL1        0.0288
      7 H          -2.7908    9.2690   -6.6487 H       1  UNL1        0.0288
      8 C          -0.7210    9.2942   -7.2971 C.3     1  UNL1       -0.0274
      9 H          -0.6048    8.3414   -6.7857 H       1  UNL1        0.0288
     10 H          -0.2320    9.2244   -8.2678 H       1  UNL1        0.0288
     11 C          -0.1275   10.4551   -6.4777 C.3     1  UNL1        0.0477
     12 H           0.2107   10.1459   -5.4834 H       1  UNL1        0.0560
     13 H           0.7049   10.9413   -7.0058 H       1  UNL1        0.0560
@<TRIPOS>BOND
     1     6     5    1
     2    10     8    1
     3     3     2    1
     4     5     2    1
     5     5     8    1
     6     5     7    1
     7     2     4    1
     8     2     1    1
     9     8     9    1
    10     8    11    1
    11    13    11    1
    12    11     1    1
    13    11    12    1
