@<TRIPOS>MOLECULE
2
 14 13 0 0 0
SMALL
GASTEIGER

@<TRIPOS>ATOM
      1 SI          0.5545    2.2937    6.4481 Si      1  UNL1        0.0000
      2 O           1.2985    1.5529    5.2165 O.3     1  UNL1        0.0000
      3 C           1.2284    4.0808    6.5685 C.3     1  UNL1        0.0000
      4 H           2.2459    4.1086    6.9474 H       1  UNL1        0.0000
      5 H           0.6169    4.6539    7.2564 H       1  UNL1        0.0000
      6 H           1.2131    4.6017    5.6141 H       1  UNL1        0.0000
      7 C           0.9126    1.3222    8.0498 C.3     1  UNL1        0.0000
      8 H           1.9639    1.3477    8.3213 H       1  UNL1        0.0000
      9 H           0.6218    0.2790    7.9574 H       1  UNL1        0.0000
     10 H           0.3518    1.7469    8.8752 H       1  UNL1        0.0000
     11 C          -1.3261    2.3369    6.1148 C.3     1  UNL1        0.0000
     12 H          -1.7367    1.3367    6.0111 H       1  UNL1        0.0000
     13 H          -1.5850    2.8950    5.2195 H       1  UNL1        0.0000
     14 H          -1.8322    2.8119    6.9483 H       1  UNL1        0.0000
@<TRIPOS>BOND
     1     2     1    1
     2    13    11    1
     3     6     3    1
     4    12    11    1
     5    11     1    1
     6    11    14    1
     7     1     3    1
     8     1     7    1
     9     3     4    1
    10     3     5    1
    11     9     7    1
    12     7     8    1
    13     7    10    1
