@<TRIPOS>MOLECULE
2
 14 13 0 0 0
SMALL
GASTEIGER

@<TRIPOS>ATOM
      1 SI          1.4580   -0.4938    3.7837 Si      1  UNL1        0.0000
      2 O           2.1696    0.8918    4.1883 O.3     1  UNL1        0.0000
      3 C          -0.3629   -0.4445    4.3571 C.3     1  UNL1        0.0000
      4 H          -0.4534    0.0533    5.3189 H       1  UNL1        0.0000
      5 H          -0.7730   -1.4444    4.4561 H       1  UNL1        0.0000
      6 H          -0.9833    0.0984    3.6495 H       1  UNL1        0.0000
      7 C           2.3932   -1.9270    4.6427 C.3     1  UNL1        0.0000
      8 H           2.2134   -1.9412    5.7139 H       1  UNL1        0.0000
      9 H           3.4668   -1.8560    4.4888 H       1  UNL1        0.0000
     10 H           2.0660   -2.8814    4.2441 H       1  UNL1        0.0000
     11 C           1.5731   -0.6915    1.8858 C.3     1  UNL1        0.0000
     12 H           2.6008   -0.8311    1.5610 H       1  UNL1        0.0000
     13 H           1.1859    0.1824    1.3679 H       1  UNL1        0.0000
     14 H           1.0032   -1.5520    1.5513 H       1  UNL1        0.0000
@<TRIPOS>BOND
     1    13    11    1
     2    14    11    1
     3    12    11    1
     4    11     1    1
     5     6     3    1
     6     1     2    1
     7     1     3    1
     8     1     7    1
     9    10     7    1
    10     3     5    1
    11     3     4    1
    12     9     7    1
    13     7     8    1
