@<TRIPOS>MOLECULE
1
 5 4 0 0 0
SMALL
GASTEIGER

@<TRIPOS>ATOM
      1 O           0.9675    1.2256    4.5001 O.3     1  UNL1       -0.2383
      2 C          -0.2918    1.7285    4.6128 C.3     1  UNL1        0.0718
      3 H          -0.5294    1.9411    5.6657 H       1  UNL1        0.0555
      4 H          -1.0281    1.0088    4.2279 H       1  UNL1        0.0555
      5 H          -0.3888    2.6623    4.0386 H       1  UNL1        0.0555
@<TRIPOS>BOND
     1     5     2    1
     2     4     2    1
     3     1     2    1
     4     2     3    1
