@<TRIPOS>MOLECULE
1
 13 13 0 0 0
SMALL
GASTEIGER

@<TRIPOS>ATOM
      1 O           3.7627    3.6387   -2.1607 O.3     1  UNL1       -0.3798
      2 C           2.6801    4.2544   -2.8552 C.3     1  UNL1        0.0477
      3 H           1.8729    4.4258   -2.1451 H       1  UNL1        0.0560
      4 H           2.3406    3.5887   -3.6606 H       1  UNL1        0.0560
      5 C           3.2726    5.5371   -3.4354 C.3     1  UNL1       -0.0274
      6 H           3.2837    6.3152   -2.6732 H       1  UNL1        0.0288
      7 H           2.7127    5.8956   -4.2954 H       1  UNL1        0.0288
      8 C           4.7034    5.1103   -3.7895 C.3     1  UNL1       -0.0274
      9 H           4.8209    4.9594   -4.8612 H       1  UNL1        0.0288
     10 H           5.4283    5.8531   -3.4653 H       1  UNL1        0.0288
     11 C           4.8863    3.7818   -3.0320 C.3     1  UNL1        0.0477
     12 H           4.9040    2.9353   -3.7309 H       1  UNL1        0.0560
     13 H           5.7842    3.7659   -2.4155 H       1  UNL1        0.0560
@<TRIPOS>BOND
     1     9     8    1
     2     7     5    1
     3     8    10    1
     4     8     5    1
     5     8    11    1
     6    12    11    1
     7     4     2    1
     8     5     2    1
     9     5     6    1
    10    11    13    1
    11    11     1    1
    12     2     1    1
    13     2     3    1
