@<TRIPOS>MOLECULE
1
 13 13 0 0 0
SMALL
GASTEIGER

@<TRIPOS>ATOM
      1 O          -8.1423    1.9328   16.0393 O.3     1  UNL1       -0.3798
      2 C          -8.2300    3.0546   16.9337 C.3     1  UNL1        0.0477
      3 H          -7.6838    3.8902   16.4926 H       1  UNL1        0.0560
      4 H          -7.7676    2.7665   17.8863 H       1  UNL1        0.0560
      5 C          -9.7142    3.3494   17.1246 C.3     1  UNL1       -0.0274
      6 H          -9.9217    3.7981   18.0928 H       1  UNL1        0.0288
      7 H         -10.0661    4.0194   16.3407 H       1  UNL1        0.0288
      8 C         -10.3258    1.9610   16.9633 C.3     1  UNL1       -0.0274
      9 H         -10.2088    1.3862   17.8828 H       1  UNL1        0.0288
     10 H         -11.3776    1.9811   16.6884 H       1  UNL1        0.0288
     11 C          -9.4507    1.3796   15.8574 C.3     1  UNL1        0.0477
     12 H          -9.3752    0.2893   15.8947 H       1  UNL1        0.0560
     13 H          -9.8328    1.6751   14.8721 H       1  UNL1        0.0560
@<TRIPOS>BOND
     1    13    11    1
     2    11    12    1
     3    11     1    1
     4    11     8    1
     5     1     2    1
     6     7     5    1
     7     3     2    1
     8    10     8    1
     9     2     5    1
    10     2     4    1
    11     8     5    1
    12     8     9    1
    13     5     6    1
