@<TRIPOS>MOLECULE
1
 36 36 0 0 0
SMALL
GASTEIGER

@<TRIPOS>ATOM
      1 O          10.8643    4.1498   17.4053 O.3     1  UNL1       -0.2873
      2 C          10.8656    4.8410   16.2657 C.ar    1  UNL1        0.1863
      3 C          11.8919    5.7843   15.9780 C.ar    1  UNL1        0.0049
      4 C          11.7697    6.5776   14.8423 C.ar    1  UNL1       -0.0544
      5 H          12.5274    7.3127   14.6211 H       1  UNL1        0.0622
      6 C          10.7058    6.4696   13.9782 C.ar    1  UNL1       -0.0610
      7 H          10.6264    7.1191   13.1196 H       1  UNL1        0.0618
      8 C           9.7589    5.4908   14.2056 C.ar    1  UNL1       -0.0544
      9 H           8.9593    5.3961   13.4916 H       1  UNL1        0.0622
     10 C           9.8209    4.6532   15.3056 C.ar    1  UNL1        0.0049
     11 C          13.1761    6.0348   16.7819 C.3     1  UNL1       -0.0090
     12 C          14.3789    5.7369   15.8662 C.3     1  UNL1       -0.0559
     13 H          15.3082    5.8802   16.4142 H       1  UNL1        0.0238
     14 H          14.3980    6.3858   14.9962 H       1  UNL1        0.0238
     15 H          14.3390    4.7069   15.5175 H       1  UNL1        0.0238
     16 C          13.2285    7.5055   17.2293 C.3     1  UNL1       -0.0559
     17 H          12.3769    7.7408   17.8627 H       1  UNL1        0.0238
     18 H          13.2198    8.1884   16.3852 H       1  UNL1        0.0238
     19 H          14.1390    7.6862   17.7977 H       1  UNL1        0.0238
     20 C          13.3714    5.1764   18.0326 C.3     1  UNL1       -0.0559
     21 H          12.5680    5.3235   18.7554 H       1  UNL1        0.0238
     22 H          14.3076    5.4560   18.5160 H       1  UNL1        0.0238
     23 H          13.4318    4.1259   17.7666 H       1  UNL1        0.0238
     24 C           8.7900    3.5251   15.4267 C.3     1  UNL1       -0.0090
     25 C           7.9305    3.6791   16.6884 C.3     1  UNL1       -0.0559
     26 H           7.1052    2.9691   16.6667 H       1  UNL1        0.0238
     27 H           7.5119    4.6833   16.7420 H       1  UNL1        0.0238
     28 H           8.5190    3.4738   17.5903 H       1  UNL1        0.0238
     29 C           9.5334    2.1843   15.4616 C.3     1  UNL1       -0.0559
     30 H          10.1609    2.1321   16.3442 H       1  UNL1        0.0238
     31 H          10.1574    2.0768   14.5761 H       1  UNL1        0.0238
     32 H           8.8283    1.3555   15.4899 H       1  UNL1        0.0238
     33 C           7.8208    3.4675   14.2358 C.3     1  UNL1       -0.0559
     34 H           7.1572    2.6140   14.3647 H       1  UNL1        0.0238
     35 H           8.3514    3.3342   13.2963 H       1  UNL1        0.0238
     36 H           7.2029    4.3606   14.1785 H       1  UNL1        0.0238
@<TRIPOS>BOND
     1     7     6    1
     2    35    33    1
     3     9     8    1
     4     6     8   ar
     5     6     4   ar
     6    36    33    1
     7     8    10   ar
     8    33    34    1
     9    33    24    1
    10    31    29    1
    11     5     4    1
    12     4     3   ar
    13    14    12    1
    14    10    24    1
    15    10     2   ar
    16    24    29    1
    17    24    25    1
    18    29    32    1
    19    29    30    1
    20    15    12    1
    21    12    13    1
    22    12    11    1
    23     3     2   ar
    24     3    11    1
    25     2     1    1
    26    18    16    1
    27    26    25    1
    28    25    27    1
    29    25    28    1
    30    11    16    1
    31    11    20    1
    32    16    19    1
    33    16    17    1
    34    23    20    1
    35    20    22    1
    36    20    21    1
