@<TRIPOS>MOLECULE
1
 13 13 0 0 0
SMALL
GASTEIGER

@<TRIPOS>ATOM
      1 O          -3.5423    1.9328   12.9702 O.3     1  UNL1       -0.3798
      2 C          -3.4547    3.0546   12.0758 C.3     1  UNL1        0.0477
      3 H          -4.0009    3.8901   12.5168 H       1  UNL1        0.0560
      4 H          -3.9171    2.7665   11.1231 H       1  UNL1        0.0560
      5 C          -1.9705    3.3494   11.8849 C.3     1  UNL1       -0.0274
      6 H          -1.7629    3.7981   10.9166 H       1  UNL1        0.0288
      7 H          -1.6186    4.0193   12.6687 H       1  UNL1        0.0288
      8 C          -1.3589    1.9610   12.0460 C.3     1  UNL1       -0.0274
      9 H          -1.4758    1.3863   11.1264 H       1  UNL1        0.0288
     10 H          -0.3070    1.9811   12.3210 H       1  UNL1        0.0288
     11 C          -2.2340    1.3794   13.1518 C.3     1  UNL1        0.0477
     12 H          -2.3096    0.2892   13.1143 H       1  UNL1        0.0560
     13 H          -1.8518    1.6746   14.1372 H       1  UNL1        0.0560
@<TRIPOS>BOND
     1     6     5    1
     2     4     2    1
     3     9     8    1
     4     5     8    1
     5     5     2    1
     6     5     7    1
     7     8    10    1
     8     8    11    1
     9     2     3    1
    10     2     1    1
    11     1    11    1
    12    12    11    1
    13    11    13    1
