@<TRIPOS>MOLECULE
1
 36 36 0 0 0
SMALL
GASTEIGER

@<TRIPOS>ATOM
      1 O          11.3844    4.2920   20.6869 O.3     1  UNL1       -0.2873
      2 C          12.2315    4.5866   21.6796 C.ar    1  UNL1        0.1863
      3 C          12.2050    5.8662   22.3066 C.ar    1  UNL1        0.0049
      4 C          13.1682    6.1781   23.2520 C.ar    1  UNL1       -0.0544
      5 H          13.1795    7.1508   23.7131 H       1  UNL1        0.0622
      6 C          14.1352    5.2724   23.6343 C.ar    1  UNL1       -0.0610
      7 H          14.8838    5.5453   24.3630 H       1  UNL1        0.0618
      8 C          14.1151    4.0043   23.0938 C.ar    1  UNL1       -0.0544
      9 H          14.8550    3.3003   23.4343 H       1  UNL1        0.0622
     10 C          13.1819    3.6314   22.1397 C.ar    1  UNL1        0.0049
     11 C          11.1183    6.8925   21.9904 C.3     1  UNL1       -0.0090
     12 C          11.2266    8.1811   22.8167 C.3     1  UNL1       -0.0559
     13 H          12.1494    8.7159   22.6041 H       1  UNL1        0.0238
     14 H          11.1668    7.9761   23.8826 H       1  UNL1        0.0238
     15 H          10.3950    8.8340   22.5562 H       1  UNL1        0.0238
     16 C          11.1941    7.2988   20.5162 C.3     1  UNL1       -0.0559
     17 H          11.0244    6.4289   19.8799 H       1  UNL1        0.0238
     18 H          12.1773    7.7112   20.2969 H       1  UNL1        0.0238
     19 H          10.4398    8.0516   20.2932 H       1  UNL1        0.0238
     20 C           9.7553    6.2666   22.3051 C.3     1  UNL1       -0.0559
     21 H           8.9477    6.9452   22.0349 H       1  UNL1        0.0238
     22 H           9.6839    6.0491   23.3689 H       1  UNL1        0.0238
     23 H           9.6306    5.3363   21.7559 H       1  UNL1        0.0238
     24 C          13.1978    2.1989   21.6076 C.3     1  UNL1       -0.0090
     25 C          13.5574    2.2182   20.1180 C.3     1  UNL1       -0.0559
     26 H          12.7959    2.7729   19.5528 H       1  UNL1        0.0238
     27 H          13.6243    1.2003   19.7351 H       1  UNL1        0.0238
     28 H          14.5201    2.7081   19.9771 H       1  UNL1        0.0238
     29 C          14.2258    1.2958   22.3052 C.3     1  UNL1       -0.0559
     30 H          15.2432    1.6363   22.1285 H       1  UNL1        0.0238
     31 H          14.1381    0.2879   21.9027 H       1  UNL1        0.0238
     32 H          14.0456    1.2449   23.3759 H       1  UNL1        0.0238
     33 C          11.8235    1.5519   21.8238 C.3     1  UNL1       -0.0559
     34 H          11.5950    1.5250   22.8879 H       1  UNL1        0.0238
     35 H          11.8210    0.5317   21.4421 H       1  UNL1        0.0238
     36 H          11.0340    2.1130   21.3165 H       1  UNL1        0.0238
@<TRIPOS>BOND
     1    26    25    1
     2    27    25    1
     3    17    16    1
     4    28    25    1
     5    25    24    1
     6    19    16    1
     7    18    16    1
     8    16    11    1
     9     1     2    1
    10    36    33    1
    11    35    33    1
    12    24    33    1
    13    24    10    1
    14    24    29    1
    15     2    10   ar
    16     2     3   ar
    17    23    20    1
    18    33    34    1
    19    31    29    1
    20    11    20    1
    21    11     3    1
    22    11    12    1
    23    21    20    1
    24    30    29    1
    25    10     8   ar
    26    20    22    1
    27    29    32    1
    28     3     4   ar
    29    15    12    1
    30    13    12    1
    31    12    14    1
    32     8     9    1
    33     8     6   ar
    34     4     6   ar
    35     4     5    1
    36     6     7    1
