@<TRIPOS>MOLECULE
1
 13 13 0 0 0
SMALL
GASTEIGER

@<TRIPOS>ATOM
      1 O           6.7036    5.2044   17.0165 O.3     1  UNL1       -0.3798
      2 C           7.4435    6.4189   17.0689 C.3     1  UNL1        0.0477
      3 C           7.8063    6.5836   18.5442 C.3     1  UNL1       -0.0274
      4 C           8.0439    5.1343   18.9911 C.3     1  UNL1       -0.0274
      5 C           7.3737    4.2889   17.8904 C.3     1  UNL1        0.0477
      6 H           6.8007    7.2099   16.6769 H       1  UNL1        0.0560
      7 H           8.3563    6.3282   16.4588 H       1  UNL1        0.0560
      8 H           6.9670    7.0196   19.0845 H       1  UNL1        0.0288
      9 H           8.6791    7.2165   18.6868 H       1  UNL1        0.0288
     10 H           9.1076    4.9093   19.0514 H       1  UNL1        0.0288
     11 H           7.6024    4.9427   19.9663 H       1  UNL1        0.0288
     12 H           8.1192    3.7219   17.3167 H       1  UNL1        0.0560
     13 H           6.6245    3.5936   18.2748 H       1  UNL1        0.0560
@<TRIPOS>BOND
     1     7     2    1
     2     6     2    1
     3     1     2    1
     4     1     5    1
     5     2     3    1
     6    12     5    1
     7     5    13    1
     8     5     4    1
     9     3     9    1
    10     3     4    1
    11     3     8    1
    12     4    10    1
    13     4    11    1
