@<TRIPOS>MOLECULE
1
 13 13 0 0 0
SMALL
GASTEIGER

@<TRIPOS>ATOM
      1 O           6.5392    5.5255   14.1938 O.3     1  UNL1       -0.3798
      2 C           7.7123    4.8338   13.7264 C.3     1  UNL1        0.0477
      3 C           8.5283    5.8731   12.9690 C.3     1  UNL1       -0.0274
      4 C           7.4201    6.6839   12.3048 C.3     1  UNL1       -0.0274
      5 C           6.3432    6.7048   13.3886 C.3     1  UNL1        0.0477
      6 H           7.4040    4.0200   13.0580 H       1  UNL1        0.0560
      7 H           8.2239    4.4050   14.5913 H       1  UNL1        0.0560
      8 H           9.2085    5.4186   12.2538 H       1  UNL1        0.0288
      9 H           9.0992    6.4974   13.6583 H       1  UNL1        0.0288
     10 H           7.7347    7.6855   12.0220 H       1  UNL1        0.0288
     11 H           7.0553    6.1612   11.4209 H       1  UNL1        0.0288
     12 H           6.4436    7.5792   14.0427 H       1  UNL1        0.0560
     13 H           5.3269    6.6872   12.9794 H       1  UNL1        0.0560
@<TRIPOS>BOND
     1    11     4    1
     2    10     4    1
     3     8     3    1
     4     4     3    1
     5     4     5    1
     6     3     9    1
     7     3     2    1
     8    13     5    1
     9     6     2    1
    10     5    12    1
    11     5     1    1
    12     2     1    1
    13     2     7    1
