@<TRIPOS>MOLECULE
2
 14 13 0 0 0
SMALL
GASTEIGER

@<TRIPOS>ATOM
      1 SI          3.3931    3.6948   18.2493 Si      1  UNL1        0.0000
      2 O           3.4497    4.0854   16.7004 O.3     1  UNL1        0.0000
      3 C           1.5853    3.5320   18.8487 C.3     1  UNL1        0.0000
      4 C           4.2598    5.1104   19.2299 C.3     1  UNL1        0.0000
      5 C           4.2961    2.0290   18.5815 C.3     1  UNL1        0.0000
      6 H           1.0459    2.7914   18.2671 H       1  UNL1        0.0000
      7 H           1.0486    4.4711   18.7606 H       1  UNL1        0.0000
      8 H           1.5498    3.2266   19.8887 H       1  UNL1        0.0000
      9 H           4.9382    4.7528   19.9988 H       1  UNL1        0.0000
     10 H           3.5267    5.7434   19.7203 H       1  UNL1        0.0000
     11 H           4.8137    5.7350   18.5282 H       1  UNL1        0.0000
     12 H           3.5924    1.2041   18.5347 H       1  UNL1        0.0000
     13 H           4.7642    1.9922   19.5606 H       1  UNL1        0.0000
     14 H           5.0595    1.8368   17.8301 H       1  UNL1        0.0000
@<TRIPOS>BOND
     1     2     1    1
     2    14     5    1
     3     1     5    1
     4     1     3    1
     5     1     4    1
     6     6     3    1
     7    11     4    1
     8    12     5    1
     9     5    13    1
    10     7     3    1
    11     3     8    1
    12     4    10    1
    13     4     9    1
