@<TRIPOS>MOLECULE
2
 14 13 0 0 0
SMALL
GASTEIGER

@<TRIPOS>ATOM
      1 SI          3.7820    7.8966   16.3238 Si      1  UNL1        0.0000
      2 O           4.6345    6.6870   15.7306 O.3     1  UNL1        0.0000
      3 C           2.0528    7.2836   16.8643 C.3     1  UNL1        0.0000
      4 C           4.6209    8.7393   17.8381 C.3     1  UNL1        0.0000
      5 C           3.6280    9.3029   15.0280 C.3     1  UNL1        0.0000
      6 H           2.0780    6.1996   16.9618 H       1  UNL1        0.0000
      7 H           1.2840    7.5351   16.1407 H       1  UNL1        0.0000
      8 H           1.7461    7.6988   17.8186 H       1  UNL1        0.0000
      9 H           5.6150    9.1113   17.6020 H       1  UNL1        0.0000
     10 H           4.7076    8.0729   18.6905 H       1  UNL1        0.0000
     11 H           4.0314    9.5921   18.1584 H       1  UNL1        0.0000
     12 H           4.5970    9.7373   14.7995 H       1  UNL1        0.0000
     13 H           2.9990   10.0997   15.4089 H       1  UNL1        0.0000
     14 H           3.1954    8.9622   14.0935 H       1  UNL1        0.0000
@<TRIPOS>BOND
     1    14     5    1
     2    12     5    1
     3     5    13    1
     4     5     1    1
     5     2     1    1
     6     7     3    1
     7     1     3    1
     8     1     4    1
     9     3     6    1
    10     3     8    1
    11     9     4    1
    12     4    11    1
    13     4    10    1
