@<TRIPOS>MOLECULE
1
 13 13 0 0 0
SMALL
GASTEIGER

@<TRIPOS>ATOM
      1 O          13.9317   18.4732   21.5908 O.3     1  UNL1       -0.3798
      2 C          15.2738   18.9781   21.4264 C.3     1  UNL1        0.0477
      3 C          16.1046   18.4658   22.6047 C.3     1  UNL1       -0.0274
      4 C          15.0395   18.2169   23.6683 C.3     1  UNL1       -0.0274
      5 C          13.8772   17.7258   22.8114 C.3     1  UNL1        0.0477
      6 H          15.2341   20.0741   21.4370 H       1  UNL1        0.0560
      7 H          15.6637   18.6525   20.4582 H       1  UNL1        0.0560
      8 H          16.8559   19.1888   22.9132 H       1  UNL1        0.0288
      9 H          16.6024   17.5312   22.3478 H       1  UNL1        0.0288
     10 H          15.3426   17.4842   24.4122 H       1  UNL1        0.0288
     11 H          14.7741   19.1466   24.1706 H       1  UNL1        0.0288
     12 H          12.9004   17.9135   23.2585 H       1  UNL1        0.0560
     13 H          13.9963   16.6562   22.5852 H       1  UNL1        0.0560
@<TRIPOS>BOND
     1     7     2    1
     2     2     6    1
     3     2     1    1
     4     2     3    1
     5     1     5    1
     6     9     3    1
     7    13     5    1
     8     3     8    1
     9     3     4    1
    10     5    12    1
    11     5     4    1
    12     4    11    1
    13     4    10    1
