@<TRIPOS>MOLECULE
1
 13 13 0 0 0
SMALL
GASTEIGER

@<TRIPOS>ATOM
      1 O          11.7223   16.0423   21.0938 O.3     1  UNL1       -0.3798
      2 C          11.0594   15.6474   22.3105 C.3     1  UNL1        0.0477
      3 C          11.2092   14.1332   22.4229 C.3     1  UNL1       -0.0274
      4 C          11.2067   13.7207   20.9555 C.3     1  UNL1       -0.0274
      5 C          11.9955   14.8594   20.3177 C.3     1  UNL1        0.0477
      6 H          11.5170   16.1810   23.1466 H       1  UNL1        0.0560
      7 H          10.0008   15.9261   22.2470 H       1  UNL1        0.0560
      8 H          12.1590   13.8723   22.8925 H       1  UNL1        0.0288
      9 H          10.3973   13.6886   22.9927 H       1  UNL1        0.0288
     10 H          10.1866   13.7063   20.5706 H       1  UNL1        0.0288
     11 H          11.6710   12.7531   20.7808 H       1  UNL1        0.0288
     12 H          13.0730   14.6596   20.3666 H       1  UNL1        0.0560
     13 H          11.7023   15.0511   19.2815 H       1  UNL1        0.0560
@<TRIPOS>BOND
     1    13     5    1
     2     5    12    1
     3     5     4    1
     4     5     1    1
     5    10     4    1
     6    11     4    1
     7     4     3    1
     8     1     2    1
     9     7     2    1
    10     2     3    1
    11     2     6    1
    12     3     8    1
    13     3     9    1
