@<TRIPOS>MOLECULE
2
 14 13 0 0 0
SMALL
GASTEIGER

@<TRIPOS>ATOM
      1 SI          2.3790    1.7816    4.0851 Si      1  UNL1        0.0000
      2 O           0.8867    1.2681    3.7501 O.3     1  UNL1        0.0000
      3 C           3.2832    0.3711    5.0167 C.3     1  UNL1        0.0000
      4 H           2.7493    0.0996    5.9234 H       1  UNL1        0.0000
      5 H           4.2908    0.6601    5.2976 H       1  UNL1        0.0000
      6 H           3.3533   -0.5213    4.3999 H       1  UNL1        0.0000
      7 C           3.2895    2.1784    2.4469 C.3     1  UNL1        0.0000
      8 H           3.2599    1.3311    1.7668 H       1  UNL1        0.0000
      9 H           4.3311    2.4259    2.6252 H       1  UNL1        0.0000
     10 H           2.8350    3.0222    1.9348 H       1  UNL1        0.0000
     11 C           2.2587    3.3470    5.1796 C.3     1  UNL1        0.0000
     12 H           1.7148    4.1428    4.6779 H       1  UNL1        0.0000
     13 H           3.2470    3.7251    5.4204 H       1  UNL1        0.0000
     14 H           1.7464    3.1389    6.1149 H       1  UNL1        0.0000
@<TRIPOS>BOND
     1     8     7    1
     2    10     7    1
     3     7     9    1
     4     7     1    1
     5     2     1    1
     6     1     3    1
     7     1    11    1
     8     6     3    1
     9    12    11    1
    10     3     5    1
    11     3     4    1
    12    11    13    1
    13    11    14    1
