@<TRIPOS>MOLECULE
1
 14 13 0 0 0
SMALL
GASTEIGER

@<TRIPOS>ATOM
      1 O          -2.0890    1.2681    2.9316 O.3     1  UNL1        0.0000
      2 SI         -3.5812    1.7816    2.5960 Si      1  UNL1        0.0000
      3 C          -4.4847    0.3719    1.6626 C.3     1  UNL1        0.0000
      4 H          -3.9498    0.1008    0.7563 H       1  UNL1        0.0000
      5 H          -5.4919    0.6613    1.3808 H       1  UNL1        0.0000
      6 H          -4.5556   -0.5209    2.2788 H       1  UNL1        0.0000
      7 C          -4.4928    2.1768    4.2340 C.3     1  UNL1        0.0000
      8 H          -4.4632    1.3291    4.9136 H       1  UNL1        0.0000
      9 H          -5.5345    2.4239    4.0553 H       1  UNL1        0.0000
     10 H          -4.0390    3.0205    4.7470 H       1  UNL1        0.0000
     11 C          -3.4604    3.3479    1.5030 C.3     1  UNL1        0.0000
     12 H          -2.9168    4.1434    2.0057 H       1  UNL1        0.0000
     13 H          -4.4485    3.7262    1.2619 H       1  UNL1        0.0000
     14 H          -2.9475    3.1408    0.5678 H       1  UNL1        0.0000
@<TRIPOS>BOND
     1    14    11    1
     2     4     3    1
     3    13    11    1
     4     5     3    1
     5    11    12    1
     6    11     2    1
     7     3     6    1
     8     3     2    1
     9     2     1    1
    10     2     7    1
    11     9     7    1
    12     7    10    1
    13     7     8    1
