@<TRIPOS>MOLECULE
2
 8 7 0 0 0
SMALL
GASTEIGER

@<TRIPOS>ATOM
      1 C          22.5795    6.9420    0.7939 C.3     1  UNL1        0.5278
      2 O          21.9074    4.6129    1.5872 O.3     1  UNL1       -0.0619
      3 O          24.1090    4.8030    0.5499 O.3     1  UNL1       -0.0619
      4 O          23.7223    5.6780    2.8074 O.3     1  UNL1       -0.0619
      5 F          22.0348    6.7287   -0.4031 F       1  UNL1       -0.1499
      6 F          23.5285    7.8656    0.6493 F       1  UNL1       -0.1499
      7 F          21.6344    7.4468    1.5857 F       1  UNL1       -0.1499
      8 S          23.2125    5.3249    1.5269 S.3     1  UNL1        0.1076
@<TRIPOS>BOND
     1     5     1    1
     2     3     8    1
     3     6     1    1
     4     1     8    1
     5     1     7    1
     6     8     2    1
     7     8     4    1
