@<TRIPOS>MOLECULE
1
 13 13 0 0 0
SMALL
GASTEIGER

@<TRIPOS>ATOM
      1 O           1.8161   -0.4974   15.9684 O.3     1  UNL1       -0.3798
      2 C           2.3262   -1.3990   14.9692 C.3     1  UNL1        0.0477
      3 C           1.4068   -2.6212   14.9543 C.3     1  UNL1       -0.0274
      4 C           0.7998   -2.5890   16.3548 C.3     1  UNL1       -0.0274
      5 C           0.6514   -1.0898   16.5729 C.3     1  UNL1        0.0477
      6 H           3.3505   -1.6711   15.2536 H       1  UNL1        0.0560
      7 H           2.3508   -0.8868   14.0022 H       1  UNL1        0.0560
      8 H           1.9521   -3.5384   14.7457 H       1  UNL1        0.0288
      9 H           0.6247   -2.4976   14.2051 H       1  UNL1        0.0288
     10 H           1.4927   -3.0164   17.0809 H       1  UNL1        0.0288
     11 H          -0.1505   -3.1122   16.4194 H       1  UNL1        0.0288
     12 H          -0.2434   -0.7051   16.0686 H       1  UNL1        0.0560
     13 H           0.6380   -0.7837   17.6222 H       1  UNL1        0.0560
@<TRIPOS>BOND
     1     7     2    1
     2     9     3    1
     3     8     3    1
     4     3     2    1
     5     3     4    1
     6     2     6    1
     7     2     1    1
     8     1     5    1
     9    12     5    1
    10     4    11    1
    11     4     5    1
    12     4    10    1
    13     5    13    1
