@<TRIPOS>MOLECULE
1
 44 43 0 0 0
SMALL
GASTEIGER

@<TRIPOS>ATOM
      1 O          -0.3332    8.8129    8.8744 O.3     1  UNL1        0.0000
      2 SI          0.3867    9.9006    9.7691 Si      1  UNL1        0.0000
      3 O           0.3420   11.4293    9.1865 O.3     1  UNL1        0.0000
      4 O          -0.1400    9.9930   11.3227 O.3     1  UNL1        0.0000
      5 O           1.9884    9.4961    9.7033 O.3     1  UNL1        0.0000
      6 C          -0.6691   12.4141    9.2409 C.3     1  UNL1        0.0000
      7 C          -0.6889    8.9861   12.1462 C.3     1  UNL1        0.0000
      8 C           3.1338   10.2094   10.1379 C.3     1  UNL1        0.0000
      9 C          -0.3754   13.4045    8.1076 C.3     1  UNL1        0.0000
     10 C          -0.6028   13.1189   10.5991 C.3     1  UNL1        0.0000
     11 C          -2.0480   11.7873    9.0422 C.3     1  UNL1        0.0000
     12 C          -0.0284    7.6348   11.8742 C.3     1  UNL1        0.0000
     13 C          -0.4488    9.4158   13.5981 C.3     1  UNL1        0.0000
     14 C          -2.1919    8.8977   11.8622 C.3     1  UNL1        0.0000
     15 C           4.2716    9.1887   10.2657 C.3     1  UNL1        0.0000
     16 C           2.8860   10.8803   11.4875 C.3     1  UNL1        0.0000
     17 C           3.4886   11.2669    9.0887 C.3     1  UNL1        0.0000
     18 H          -0.4388   12.8966    7.1488 H       1  UNL1        0.0000
     19 H           0.6280   13.8081    8.2186 H       1  UNL1        0.0000
     20 H          -1.0896   14.2232    8.1273 H       1  UNL1        0.0000
     21 H           0.3526   13.6266   10.7104 H       1  UNL1        0.0000
     22 H          -0.6929   12.3730   11.3835 H       1  UNL1        0.0000
     23 H          -1.4044   13.8470   10.6922 H       1  UNL1        0.0000
     24 H          -2.0441   11.1917    8.1343 H       1  UNL1        0.0000
     25 H          -2.8119   12.5576    8.9714 H       1  UNL1        0.0000
     26 H          -2.2689   11.1343    9.8801 H       1  UNL1        0.0000
     27 H          -0.1868    7.3668   10.8323 H       1  UNL1        0.0000
     28 H          -0.4439    6.8675   12.5223 H       1  UNL1        0.0000
     29 H           1.0417    7.7104   12.0479 H       1  UNL1        0.0000
     30 H           0.6178    9.4718   13.7989 H       1  UNL1        0.0000
     31 H          -0.9022    8.7032   14.2819 H       1  UNL1        0.0000
     32 H          -0.8810   10.3983   13.7703 H       1  UNL1        0.0000
     33 H          -2.3264    8.7168   10.7988 H       1  UNL1        0.0000
     34 H          -2.6780    9.8357   12.1219 H       1  UNL1        0.0000
     35 H          -2.6477    8.0929   12.4331 H       1  UNL1        0.0000
     36 H           4.0119    8.4301   11.0002 H       1  UNL1        0.0000
     37 H           5.1859    9.6850   10.5807 H       1  UNL1        0.0000
     38 H           4.4476    8.6992    9.3115 H       1  UNL1        0.0000
     39 H           2.5964   10.1339   12.2220 H       1  UNL1        0.0000
     40 H           2.0756   11.5953   11.3927 H       1  UNL1        0.0000
     41 H           3.7840   11.3895   11.8292 H       1  UNL1        0.0000
     42 H           2.6260   11.9078    8.9366 H       1  UNL1        0.0000
     43 H           3.7367   10.7906    8.1434 H       1  UNL1        0.0000
     44 H           4.3353   11.8635    9.4184 H       1  UNL1        0.0000
@<TRIPOS>BOND
     1    18     9    1
     2     9    20    1
     3     9    19    1
     4     9     6    1
     5    24    11    1
     6    43    17    1
     7     1     2    1
     8    42    17    1
     9    25    11    1
    10    11     6    1
    11    11    26    1
    12    17    44    1
    13    17     8    1
    14     3     6    1
    15     3     2    1
    16     6    10    1
    17    38    15    1
    18     5     2    1
    19     5     8    1
    20     2     4    1
    21     8    15    1
    22     8    16    1
    23    15    37    1
    24    15    36    1
    25    10    23    1
    26    10    21    1
    27    10    22    1
    28    33    14    1
    29    27    12    1
    30     4     7    1
    31    40    16    1
    32    16    41    1
    33    16    39    1
    34    14    34    1
    35    14     7    1
    36    14    35    1
    37    12    29    1
    38    12     7    1
    39    12    28    1
    40     7    13    1
    41    13    32    1
    42    13    30    1
    43    13    31    1
