@<TRIPOS>MOLECULE
3
 44 43 0 0 0
SMALL
GASTEIGER

@<TRIPOS>ATOM
      1 SI         -0.9541    5.1644    5.2763 Si      1  UNL1        0.0000
      2 O          -0.9094    3.6357    5.8589 O.3     1  UNL1        0.0000
      3 O          -0.2342    6.2522    6.1708 O.3     1  UNL1        0.0000
      4 O          -0.4274    5.0720    3.7226 O.3     1  UNL1        0.0000
      5 O          -2.5558    5.5690    5.3420 O.3     1  UNL1        0.0000
      6 C          -0.1920    1.6606    6.9378 C.3     1  UNL1        0.0000
      7 C          -4.8391    5.8763    4.7796 C.3     1  UNL1        0.0000
      8 C           0.0353    1.9461    4.4463 C.3     1  UNL1        0.0000
      9 C          -0.5392    7.4302    3.1710 C.3     1  UNL1        0.0000
     10 C          -0.1186    5.6491    1.4472 C.3     1  UNL1        0.0000
     11 C          -3.4534    4.1846    3.5579 C.3     1  UNL1        0.0000
     12 C          -4.0560    3.7981    5.9566 C.3     1  UNL1        0.0000
     13 C           1.4806    3.2777    6.0030 C.3     1  UNL1        0.0000
     14 C           1.6244    6.1673    3.1831 C.3     1  UNL1        0.0000
     15 C           0.1017    2.6509    5.8045 C.3     1  UNL1        0.0000
     16 C           0.1214    6.0788    2.8991 C.3     1  UNL1        0.0000
     17 C          -3.7013    4.8556    4.9074 C.3     1  UNL1        0.0000
     18 H           1.7589    6.3483    4.2464 H       1  UNL1        0.0000
     19 H           2.1105    5.2294    2.9234 H       1  UNL1        0.0000
     20 H           2.0802    6.9722    2.6122 H       1  UNL1        0.0000
     21 H           1.4768    3.8734    6.9108 H       1  UNL1        0.0000
     22 H           2.2444    2.5074    6.0738 H       1  UNL1        0.0000
     23 H           1.7015    3.9307    5.1650 H       1  UNL1        0.0000
     24 H          -3.1933    3.1572    6.1088 H       1  UNL1        0.0000
     25 H          -4.3041    4.2744    6.9019 H       1  UNL1        0.0000
     26 H          -4.9027    3.2015    5.6270 H       1  UNL1        0.0000
     27 H          -3.1639    4.9310    2.8233 H       1  UNL1        0.0000
     28 H          -2.6430    3.4697    3.6527 H       1  UNL1        0.0000
     29 H          -4.3514    3.6754    3.2161 H       1  UNL1        0.0000
     30 H          -1.1852    5.5930    1.2463 H       1  UNL1        0.0000
     31 H           0.3348    6.3617    0.7633 H       1  UNL1        0.0000
     32 H           0.3136    4.6666    1.2750 H       1  UNL1        0.0000
     33 H          -0.3807    7.6982    4.2129 H       1  UNL1        0.0000
     34 H          -0.1236    8.1974    2.5229 H       1  UNL1        0.0000
     35 H          -1.6092    7.3544    2.9973 H       1  UNL1        0.0000
     36 H          -0.9201    1.4384    4.3350 H       1  UNL1        0.0000
     37 H           0.1253    2.6919    3.6619 H       1  UNL1        0.0000
     38 H           0.8369    1.2179    4.3532 H       1  UNL1        0.0000
     39 H          -4.5793    6.6348    4.0451 H       1  UNL1        0.0000
     40 H          -5.7533    5.3799    4.4646 H       1  UNL1        0.0000
     41 H          -5.0151    6.3658    5.7337 H       1  UNL1        0.0000
     42 H          -0.1285    2.1685    7.8966 H       1  UNL1        0.0000
     43 H          -1.1953    1.2570    6.8269 H       1  UNL1        0.0000
     44 H           0.5222    0.8419    6.9181 H       1  UNL1        0.0000
@<TRIPOS>BOND
     1    31    10    1
     2    30    10    1
     3    32    10    1
     4    10    16    1
     5    34     9    1
     6    20    14    1
     7    27    11    1
     8    16     9    1
     9    16    14    1
    10    16     4    1
    11    19    14    1
    12    35     9    1
    13     9    33    1
    14    14    18    1
    15    29    11    1
    16    11    28    1
    17    11    17    1
    18    37     8    1
    19     4     1    1
    20    39     7    1
    21    36     8    1
    22    38     8    1
    23     8    15    1
    24    40     7    1
    25     7    17    1
    26     7    41    1
    27    17     5    1
    28    17    12    1
    29    23    13    1
    30     1     5    1
    31     1     2    1
    32     1     3    1
    33    26    12    1
    34    15     2    1
    35    15    13    1
    36    15     6    1
    37    12    24    1
    38    12    25    1
    39    13    22    1
    40    13    21    1
    41    43     6    1
    42    44     6    1
    43     6    42    1
