@<TRIPOS>MOLECULE
1
 13 13 0 0 0
SMALL
GASTEIGER

@<TRIPOS>ATOM
      1 O           9.0586    6.7522   14.1132 O.3     1  UNL1       -0.3798
      2 C           9.6851    5.5089   14.4902 C.3     1  UNL1        0.0477
      3 H           8.9420    4.9330   15.0517 H       1  UNL1        0.0560
      4 H          10.5342    5.7310   15.1429 H       1  UNL1        0.0560
      5 C          10.1063    4.7994   13.1996 C.3     1  UNL1       -0.0274
      6 H           9.9434    3.7260   13.2543 H       1  UNL1        0.0288
      7 H          11.1605    4.9815   12.9870 H       1  UNL1        0.0288
      8 C           9.2324    5.4765   12.1480 C.3     1  UNL1       -0.0274
      9 H           8.2356    5.0353   12.1458 H       1  UNL1        0.0288
     10 H           9.6532    5.4316   11.1462 H       1  UNL1        0.0288
     11 C           9.1675    6.8964   12.6967 C.3     1  UNL1        0.0477
     12 H          10.0834    7.4535   12.4512 H       1  UNL1        0.0560
     13 H           8.2978    7.4542   12.3448 H       1  UNL1        0.0560
@<TRIPOS>BOND
     1    10     8    1
     2     9     8    1
     3     8    11    1
     4     8     5    1
     5    13    11    1
     6    12    11    1
     7    11     1    1
     8     7     5    1
     9     5     6    1
    10     5     2    1
    11     1     2    1
    12     2     3    1
    13     2     4    1
