@<TRIPOS>MOLECULE
2
 8 7 0 0 0
SMALL
GASTEIGER

@<TRIPOS>ATOM
      1 S          -5.2168    4.6723   -3.6978 S.3     1  UNL1        0.1076
      2 O          -6.2544    5.6282   -3.2872 O.3     1  UNL1       -0.0619
      3 O          -5.6269    3.8629   -4.8073 O.3     1  UNL1       -0.0619
      4 O          -3.8962    5.2126   -3.7201 O.3     1  UNL1       -0.0619
      5 F          -5.0206    4.2966   -1.1152 F       1  UNL1       -0.1499
      6 F          -4.3976    2.5542   -2.2289 F       1  UNL1       -0.1499
      7 F          -6.4937    3.0413   -2.0600 F       1  UNL1       -0.1499
      8 C          -5.2698    3.5568   -2.2002 C.3     1  UNL1        0.5278
@<TRIPOS>BOND
     1     3     1    1
     2     4     1    1
     3     1     2    1
     4     1     8    1
     5     6     8    1
     6     8     7    1
     7     8     5    1
