@<TRIPOS>MOLECULE
1
 14 13 0 0 0
SMALL
GASTEIGER

@<TRIPOS>ATOM
      1 O          -1.5993   12.3072   -1.6271 O.3     1  UNL1       -0.2188
      2 F          -2.4392   12.3372   -5.0645 F       1  UNL1       -0.1675
      3 F          -0.9033   11.2825   -3.9789 F       1  UNL1       -0.1675
      4 F          -2.9739   10.8478   -3.6133 F       1  UNL1       -0.1675
      5 C          -2.1228   12.9137   -2.7416 C.3     1  UNL1        0.1928
      6 C          -1.2569   14.0961   -3.2005 C.3     1  UNL1       -0.0245
      7 H          -1.6983   14.5698   -4.0736 H       1  UNL1        0.0261
      8 H          -1.1928   14.8198   -2.3905 H       1  UNL1        0.0261
      9 H          -0.2544   13.7511   -3.4498 H       1  UNL1        0.0261
     10 C          -3.5709   13.3488   -2.4749 C.3     1  UNL1       -0.0245
     11 H          -3.5666   14.1386   -1.7260 H       1  UNL1        0.0261
     12 H          -4.0355   13.7141   -3.3877 H       1  UNL1        0.0261
     13 H          -4.1382   12.5022   -2.0841 H       1  UNL1        0.0261
     14 C          -2.1131   11.8473   -3.8590 C.3     1  UNL1        0.4209
@<TRIPOS>BOND
     1     2    14    1
     2     7     6    1
     3     3    14    1
     4    14     4    1
     5    14     5    1
     6     9     6    1
     7    12    10    1
     8     6     5    1
     9     6     8    1
    10     5    10    1
    11     5     1    1
    12    10    13    1
    13    10    11    1
