@<TRIPOS>MOLECULE
1
 14 13 0 0 0
SMALL
GASTEIGER

@<TRIPOS>ATOM
      1 O           0.6002   11.4231    0.3557 O.3     1  UNL1       -0.2188
      2 F           1.3437   12.8946   -1.6821 F       1  UNL1       -0.1675
      3 F           0.2517   14.1319   -0.3147 F       1  UNL1       -0.1675
      4 F           2.3807   14.3640   -0.4928 F       1  UNL1       -0.1675
      5 C           1.5722   12.3566    0.6232 C.3     1  UNL1        0.1928
      6 C           2.9704   11.7354    0.4638 C.3     1  UNL1       -0.0245
      7 H           3.0825   11.3325   -0.5417 H       1  UNL1        0.0261
      8 H           3.7442   12.4763    0.6468 H       1  UNL1        0.0261
      9 H           3.0676   10.9199    1.1755 H       1  UNL1        0.0261
     10 C           1.3880   12.9867    2.0108 C.3     1  UNL1       -0.0245
     11 H           1.6093   12.2363    2.7655 H       1  UNL1        0.0261
     12 H           2.0505   13.8393    2.1393 H       1  UNL1        0.0261
     13 H           0.3469   13.2961    2.1251 H       1  UNL1        0.0261
     14 C           1.4058   13.4459   -0.4556 C.3     1  UNL1        0.4209
@<TRIPOS>BOND
     1     2    14    1
     2     7     6    1
     3     4    14    1
     4    14     3    1
     5    14     5    1
     6     1     5    1
     7     6     5    1
     8     6     8    1
     9     6     9    1
    10     5    10    1
    11    10    13    1
    12    10    12    1
    13    10    11    1
