@<TRIPOS>MOLECULE
4
 14 13 0 0 0
SMALL
GASTEIGER

@<TRIPOS>ATOM
      1 F           7.0128    0.9585    7.6547 F       1  UNL1       -0.1675
      2 F           8.3627    2.4792    8.3368 F       1  UNL1       -0.1675
      3 F           6.2422    2.7424    8.5779 F       1  UNL1       -0.1675
      4 O           7.3620    2.1666   10.9711 O.3     1  UNL1       -0.2188
      5 C           7.2843    1.1623   10.0339 C.3     1  UNL1        0.1928
      6 C           5.9990    0.3392   10.2101 C.3     1  UNL1       -0.0245
      7 H           5.9804   -0.0628   11.2232 H       1  UNL1        0.0261
      8 H           5.9719   -0.4793    9.4952 H       1  UNL1        0.0261
      9 H           5.1248    0.9710   10.0612 H       1  UNL1        0.0261
     10 C           8.5250    0.2595   10.0975 C.3     1  UNL1       -0.0245
     11 H           8.4794   -0.5022    9.3230 H       1  UNL1        0.0261
     12 H           9.4271    0.8545    9.9640 H       1  UNL1        0.0261
     13 H           8.5576   -0.2154   11.0776 H       1  UNL1        0.0261
     14 C           7.2306    1.8387    8.6460 C.3     1  UNL1        0.4209
@<TRIPOS>BOND
     1     1    14    1
     2     2    14    1
     3     3    14    1
     4    14     5    1
     5    11    10    1
     6     8     6    1
     7    12    10    1
     8     5    10    1
     9     5     6    1
    10     5     4    1
    11     9     6    1
    12    10    13    1
    13     6     7    1
