@<TRIPOS>MOLECULE
4
 14 13 0 0 0
SMALL
GASTEIGER

@<TRIPOS>ATOM
      1 F           8.3520    4.6909    9.9152 F       1  UNL1       -0.1675
      2 F          10.4361    5.1683    9.6038 F       1  UNL1       -0.1675
      3 F           9.8807    3.3308   10.5810 F       1  UNL1       -0.1675
      4 O           8.4680    4.7616   12.5137 O.3     1  UNL1       -0.2188
      5 C           9.5463    5.3165   11.8673 C.3     1  UNL1        0.1928
      6 C           9.3376    6.8280   11.6738 C.3     1  UNL1       -0.0245
      7 H           8.4145    7.0052   11.1236 H       1  UNL1        0.0261
      8 H           9.2510    7.2921   12.6530 H       1  UNL1        0.0261
      9 H          10.1726    7.2653   11.1330 H       1  UNL1        0.0261
     10 C          10.8751    5.0216   12.5828 C.3     1  UNL1       -0.0245
     11 H          10.9418    3.9555   12.8059 H       1  UNL1        0.0261
     12 H          10.9049    5.5747   13.5177 H       1  UNL1        0.0261
     13 H          11.7151    5.3200   11.9596 H       1  UNL1        0.0261
     14 C           9.5742    4.6444   10.4791 C.3     1  UNL1        0.4209
@<TRIPOS>BOND
     1     2    14    1
     2     1    14    1
     3    14     3    1
     4    14     5    1
     5     7     6    1
     6     9     6    1
     7     6     5    1
     8     6     8    1
     9     5     4    1
    10     5    10    1
    11    13    10    1
    12    10    11    1
    13    10    12    1
