@<TRIPOS>MOLECULE
1
 13 13 0 0 0
SMALL
GASTEIGER

@<TRIPOS>ATOM
      1 O          31.3792   -6.5614   22.5737 O.3     1  UNL1       -0.3798
      2 C          30.3418   -7.2215   23.2991 C.3     1  UNL1        0.0477
      3 H          29.3926   -6.9734   22.8230 H       1  UNL1        0.0560
      4 H          30.3297   -6.8689   24.3400 H       1  UNL1        0.0560
      5 C          30.7083   -8.7001   23.2514 C.3     1  UNL1       -0.0274
      6 H          30.2100   -9.2790   24.0239 H       1  UNL1        0.0288
      7 H          30.4614   -9.1227   22.2768 H       1  UNL1        0.0288
      8 C          32.2245   -8.6339   23.4420 C.3     1  UNL1       -0.0274
      9 H          32.4716   -8.6437   24.5027 H       1  UNL1        0.0288
     10 H          32.7397   -9.4612   22.9615 H       1  UNL1        0.0288
     11 C          32.6017   -7.2823   22.8143 C.3     1  UNL1        0.0477
     12 H          33.1048   -7.3981   21.8501 H       1  UNL1        0.0560
     13 H          33.2424   -6.6929   23.4803 H       1  UNL1        0.0560
@<TRIPOS>BOND
     1    12    11    1
     2     7     5    1
     3     1    11    1
     4     1     2    1
     5    11     8    1
     6    11    13    1
     7     3     2    1
     8    10     8    1
     9     5     2    1
    10     5     8    1
    11     5     6    1
    12     2     4    1
    13     8     9    1
