@<TRIPOS>MOLECULE
1
 13 13 0 0 0
SMALL
GASTEIGER

@<TRIPOS>ATOM
      1 O          30.3354   -2.0957   19.5981 O.3     1  UNL1       -0.3798
      2 C          30.6851   -0.7685   20.0000 C.3     1  UNL1        0.0477
      3 H          31.4769   -0.8392   20.7460 H       1  UNL1        0.0560
      4 H          29.8027   -0.2776   20.4350 H       1  UNL1        0.0560
      5 C          31.1110   -0.0528   18.7158 C.3     1  UNL1       -0.0274
      6 H          30.9027    1.0126   18.7664 H       1  UNL1        0.0288
      7 H          32.1779   -0.1868   18.5447 H       1  UNL1        0.0288
      8 C          30.2894   -0.7631   17.6270 C.3     1  UNL1       -0.0274
      9 H          30.9320   -1.1307   16.8303 H       1  UNL1        0.0288
     10 H          29.5423   -0.1064   17.1874 H       1  UNL1        0.0288
     11 C          29.6191   -1.9285   18.3727 C.3     1  UNL1        0.0477
     12 H          28.5708   -1.6852   18.5990 H       1  UNL1        0.0560
     13 H          29.6650   -2.8695   17.8254 H       1  UNL1        0.0560
@<TRIPOS>BOND
     1     9     8    1
     2    10     8    1
     3     8    11    1
     4     8     5    1
     5    13    11    1
     6    11    12    1
     7    11     1    1
     8     7     5    1
     9     5     6    1
    10     5     2    1
    11     1     2    1
    12     2     4    1
    13     2     3    1
