@<TRIPOS>MOLECULE
1
 13 13 0 0 0
SMALL
GASTEIGER

@<TRIPOS>ATOM
      1 O          29.1398   -5.7289   20.0694 O.3     1  UNL1       -0.3798
      2 C          29.1417   -7.1189   19.6883 C.3     1  UNL1        0.0477
      3 H          29.7226   -7.6777   20.4250 H       1  UNL1        0.0560
      4 H          29.6240   -7.2088   18.7083 H       1  UNL1        0.0560
      5 C          27.6815   -7.5536   19.6136 C.3     1  UNL1       -0.0274
      6 H          27.5324   -8.3682   18.9105 H       1  UNL1        0.0288
      7 H          27.3176   -7.8623   20.5944 H       1  UNL1        0.0288
      8 C          27.0041   -6.2567   19.1801 C.3     1  UNL1       -0.0274
      9 H          27.1374   -6.0997   18.1096 H       1  UNL1        0.0288
     10 H          25.9432   -6.2275   19.4130 H       1  UNL1        0.0288
     11 C          27.7995   -5.2266   19.9749 C.3     1  UNL1        0.0477
     12 H          27.8306   -4.2431   19.4990 H       1  UNL1        0.0560
     13 H          27.3918   -5.1207   20.9883 H       1  UNL1        0.0560
@<TRIPOS>BOND
     1     9     8    1
     2     4     2    1
     3     6     5    1
     4     8    10    1
     5     8     5    1
     6     8    11    1
     7    12    11    1
     8     5     2    1
     9     5     7    1
    10     2     1    1
    11     2     3    1
    12    11     1    1
    13    11    13    1
