@<TRIPOS>MOLECULE
1
 13 13 0 0 0
SMALL
GASTEIGER

@<TRIPOS>ATOM
      1 O          29.3307   -3.6528   22.5099 O.3     1  UNL1       -0.3798
      2 C          28.3768   -2.6079   22.3500 C.3     1  UNL1        0.0477
      3 H          27.3675   -3.0013   22.5388 H       1  UNL1        0.0560
      4 H          28.4382   -2.2439   21.3260 H       1  UNL1        0.0560
      5 C          28.7445   -1.5641   23.4083 C.3     1  UNL1       -0.0274
      6 H          29.4949   -0.8781   23.0167 H       1  UNL1        0.0288
      7 H          27.8784   -0.9881   23.7235 H       1  UNL1        0.0288
      8 C          29.3323   -2.4199   24.5429 C.3     1  UNL1       -0.0274
      9 H          28.6890   -2.4290   25.4197 H       1  UNL1        0.0288
     10 H          30.3120   -2.0541   24.8426 H       1  UNL1        0.0288
     11 C          29.4325   -3.8249   23.9234 C.3     1  UNL1        0.0477
     12 H          28.6007   -4.4554   24.2669 H       1  UNL1        0.0560
     13 H          30.3778   -4.3241   24.1347 H       1  UNL1        0.0560
@<TRIPOS>BOND
     1     4     2    1
     2     2     1    1
     3     2     3    1
     4     2     5    1
     5     1    11    1
     6     6     5    1
     7     5     7    1
     8     5     8    1
     9    11    13    1
    10    11    12    1
    11    11     8    1
    12     8    10    1
    13     8     9    1
