@<TRIPOS>MOLECULE
1
 13 13 0 0 0
SMALL
GASTEIGER

@<TRIPOS>ATOM
      1 O           2.0937   11.3614    7.8355 O.3     1  UNL1       -0.3798
      2 C           2.7164   10.1616    8.2597 C.3     1  UNL1        0.0477
      3 H           3.1423    9.6741    7.3826 H       1  UNL1        0.0560
      4 H           1.9712    9.4975    8.7204 H       1  UNL1        0.0560
      5 C           3.7624   10.5906    9.2969 C.3     1  UNL1       -0.0274
      6 H           4.7136   10.8017    8.8091 H       1  UNL1        0.0288
      7 H           3.9235    9.8194   10.0465 H       1  UNL1        0.0288
      8 C           3.1575   11.8734    9.8912 C.3     1  UNL1       -0.0274
      9 H           2.8780   11.7455   10.9349 H       1  UNL1        0.0288
     10 H           3.8598   12.7034    9.8296 H       1  UNL1        0.0288
     11 C           1.9148   12.1279    9.0184 C.3     1  UNL1        0.0477
     12 H           1.0089   11.7907    9.5396 H       1  UNL1        0.0560
     13 H           1.7911   13.1700    8.7221 H       1  UNL1        0.0560
@<TRIPOS>BOND
     1     3     2    1
     2     1     2    1
     3     1    11    1
     4     2     4    1
     5     2     5    1
     6    13    11    1
     7     6     5    1
     8    11    12    1
     9    11     8    1
    10     5     8    1
    11     5     7    1
    12    10     8    1
    13     8     9    1
