@<TRIPOS>MOLECULE
1
 13 13 0 0 0
SMALL
GASTEIGER

@<TRIPOS>ATOM
      1 O           2.9102   13.3824    5.8498 O.3     1  UNL1       -0.3798
      2 C           2.8310   14.8007    5.9396 C.3     1  UNL1        0.0477
      3 H           2.6387   15.0921    6.9825 H       1  UNL1        0.0560
      4 H           1.9921   15.1264    5.3254 H       1  UNL1        0.0560
      5 C           4.1935   15.3447    5.4708 C.3     1  UNL1       -0.0274
      6 H           4.5561   16.1147    6.1495 H       1  UNL1        0.0288
      7 H           4.1203   15.7763    4.4752 H       1  UNL1        0.0288
      8 C           5.1023   14.1051    5.4745 C.3     1  UNL1       -0.0274
      9 H           5.3043   13.7757    4.4563 H       1  UNL1        0.0288
     10 H           6.0496   14.2790    5.9805 H       1  UNL1        0.0288
     11 C           4.2447   13.0638    6.1995 C.3     1  UNL1        0.0477
     12 H           4.4387   12.0357    5.8956 H       1  UNL1        0.0560
     13 H           4.3779   13.1545    7.2878 H       1  UNL1        0.0560
@<TRIPOS>BOND
     1     9     8    1
     2     7     5    1
     3     4     2    1
     4     5     8    1
     5     5     2    1
     6     5     6    1
     7     8    10    1
     8     8    11    1
     9     1     2    1
    10     1    11    1
    11    12    11    1
    12     2     3    1
    13    11    13    1
