@<TRIPOS>MOLECULE
1
 13 13 0 0 0
SMALL
GASTEIGER

@<TRIPOS>ATOM
      1 O           2.7555   10.2727    4.4722 O.3     1  UNL1       -0.3798
      2 C           2.9256    8.8682    4.3217 C.3     1  UNL1        0.0477
      3 H           2.1119    8.3709    4.8496 H       1  UNL1        0.0560
      4 H           3.8840    8.5694    4.7738 H       1  UNL1        0.0560
      5 C           2.9384    8.5818    2.8084 C.3     1  UNL1       -0.0274
      6 H           2.0073    8.1193    2.4873 H       1  UNL1        0.0288
      7 H           3.7567    7.9112    2.5506 H       1  UNL1        0.0288
      8 C           3.1146    9.9718    2.1755 C.3     1  UNL1       -0.0274
      9 H           3.8975    9.9939    1.4210 H       1  UNL1        0.0288
     10 H           2.1855   10.3152    1.7225 H       1  UNL1        0.0288
     11 C           3.4540   10.8537    3.3782 C.3     1  UNL1        0.0477
     12 H           4.5369   10.8292    3.5812 H       1  UNL1        0.0560
     13 H           3.1076   11.8807    3.2766 H       1  UNL1        0.0560
@<TRIPOS>BOND
     1     9     8    1
     2    10     8    1
     3     8     5    1
     4     8    11    1
     5     6     5    1
     6     7     5    1
     7     5     2    1
     8    13    11    1
     9    11    12    1
    10    11     1    1
    11     2     1    1
    12     2     4    1
    13     2     3    1
