@<TRIPOS>MOLECULE
2
 41 40 0 0 0
SMALL
GASTEIGER

@<TRIPOS>ATOM
      1 SI          2.1828    4.1041   12.3455 Si      1  UNL1        0.0000
      2 O           1.6046    4.2296   10.8798 O.3     1  UNL1        0.0000
      3 C           2.1058    5.8956   13.1579 C.3     1  UNL1        0.0000
      4 C           2.6323    6.9096   12.1358 C.3     1  UNL1        0.0000
      5 H           2.3338    7.9234   12.4108 H       1  UNL1        0.0000
      6 H           2.2504    6.6716   11.1423 H       1  UNL1        0.0000
      7 H           3.7147    6.8969   12.0965 H       1  UNL1        0.0000
      8 C           2.8861    6.0808   14.4591 C.3     1  UNL1        0.0000
      9 H           2.7411    7.0926   14.8430 H       1  UNL1        0.0000
     10 H           3.9511    5.9385   14.2991 H       1  UNL1        0.0000
     11 H           2.5594    5.3810   15.2226 H       1  UNL1        0.0000
     12 C           0.6454    6.2645   13.4264 C.3     1  UNL1        0.0000
     13 H           0.5557    7.3201   13.6951 H       1  UNL1        0.0000
     14 H           0.2293    5.6877   14.2461 H       1  UNL1        0.0000
     15 H           0.0543    6.0738   12.5347 H       1  UNL1        0.0000
     16 C           4.0430    3.4823   12.2243 C.3     1  UNL1        0.0000
     17 C           4.9277    4.5896   11.6485 C.3     1  UNL1        0.0000
     18 H           5.9088    4.1922   11.3797 H       1  UNL1        0.0000
     19 H           5.0849    5.3861   12.3689 H       1  UNL1        0.0000
     20 H           4.4618    5.0012   10.7544 H       1  UNL1        0.0000
     21 C           4.6458    3.0276   13.5528 C.3     1  UNL1        0.0000
     22 H           5.6900    2.7404   13.4148 H       1  UNL1        0.0000
     23 H           4.1156    2.1678   13.9523 H       1  UNL1        0.0000
     24 H           4.6095    3.8203   14.2939 H       1  UNL1        0.0000
     25 C           4.1313    2.3281   11.2256 C.3     1  UNL1        0.0000
     26 H           5.1714    2.0284   11.0793 H       1  UNL1        0.0000
     27 H           3.7280    2.6571   10.2710 H       1  UNL1        0.0000
     28 H           3.5764    1.4601   11.5613 H       1  UNL1        0.0000
     29 C           1.0261    2.8353   13.3116 C.3     1  UNL1        0.0000
     30 C           1.0728    3.0038   14.8312 C.3     1  UNL1        0.0000
     31 H           0.4379    2.2563   15.3109 H       1  UNL1        0.0000
     32 H           0.7210    3.9811   15.1442 H       1  UNL1        0.0000
     33 H           2.0864    2.8708   15.2009 H       1  UNL1        0.0000
     34 C           1.3861    1.3731   13.0386 C.3     1  UNL1        0.0000
     35 H           0.6734    0.7157   13.5417 H       1  UNL1        0.0000
     36 H           2.3750    1.1308   13.4162 H       1  UNL1        0.0000
     37 H           1.3510    1.1507   11.9791 H       1  UNL1        0.0000
     38 C          -0.4138    3.0317   12.8257 C.3     1  UNL1        0.0000
     39 H          -1.0579    2.2304   13.1926 H       1  UNL1        0.0000
     40 H          -0.4456    3.0324   11.7366 H       1  UNL1        0.0000
     41 H          -0.8209    3.9743   13.1780 H       1  UNL1        0.0000
@<TRIPOS>BOND
     1    27    25    1
     2    20    17    1
     3     2     1    1
     4    26    25    1
     5     6     4    1
     6    25    28    1
     7    25    16    1
     8    18    17    1
     9    17    16    1
    10    17    19    1
    11    40    38    1
    12    37    34    1
    13     7     4    1
    14     4     5    1
    15     4     3    1
    16    16     1    1
    17    16    21    1
    18     1     3    1
    19     1    29    1
    20    15    12    1
    21    38    41    1
    22    38    39    1
    23    38    29    1
    24    34    29    1
    25    34    36    1
    26    34    35    1
    27     3    12    1
    28     3     8    1
    29    29    30    1
    30    22    21    1
    31    12    13    1
    32    12    14    1
    33    21    23    1
    34    21    24    1
    35    10     8    1
    36     8     9    1
    37     8    11    1
    38    30    32    1
    39    30    33    1
    40    30    31    1
