@<TRIPOS>MOLECULE
2
 41 40 0 0 0
SMALL
GASTEIGER

@<TRIPOS>ATOM
      1 SI          0.2360    4.0048   16.0773 Si      1  UNL1        0.0000
      2 O           1.8147    4.1246   16.2476 O.3     1  UNL1        0.0000
      3 C          -0.0807    2.2399   15.2605 C.3     1  UNL1        0.0000
      4 C           0.8068    1.2026   15.9629 C.3     1  UNL1        0.0000
      5 H           0.9077    0.3093   15.3444 H       1  UNL1        0.0000
      6 H           0.3808    0.8985   16.9129 H       1  UNL1        0.0000
      7 H           1.8021    1.6151   16.1513 H       1  UNL1        0.0000
      8 C           0.3466    2.2476   13.7902 C.3     1  UNL1        0.0000
      9 H           0.2769    1.2424   13.3699 H       1  UNL1        0.0000
     10 H           1.3767    2.5799   13.6966 H       1  UNL1        0.0000
     11 H          -0.2870    2.8963   13.1927 H       1  UNL1        0.0000
     12 C          -1.5300    1.7546   15.3166 C.3     1  UNL1        0.0000
     13 H          -1.6204    0.7858   14.8229 H       1  UNL1        0.0000
     14 H          -2.1969    2.4511   14.8165 H       1  UNL1        0.0000
     15 H          -1.8672    1.6360   16.3422 H       1  UNL1        0.0000
     16 C          -0.3227    5.4914   14.9202 C.3     1  UNL1        0.0000
     17 C           0.6945    5.7074   13.7968 C.3     1  UNL1        0.0000
     18 H           0.3634    6.5105   13.1361 H       1  UNL1        0.0000
     19 H           0.8396    4.8141   13.1995 H       1  UNL1        0.0000
     20 H           1.6534    5.9970   14.2210 H       1  UNL1        0.0000
     21 C          -1.6986    5.2612   14.2948 C.3     1  UNL1        0.0000
     22 H          -2.0060    6.1404   13.7262 H       1  UNL1        0.0000
     23 H          -2.4480    5.0747   15.0585 H       1  UNL1        0.0000
     24 H          -1.6864    4.4149   13.6145 H       1  UNL1        0.0000
     25 C          -0.3811    6.8132   15.6914 C.3     1  UNL1        0.0000
     26 H          -0.5517    7.6413   15.0008 H       1  UNL1        0.0000
     27 H           0.5544    6.9958   16.2153 H       1  UNL1        0.0000
     28 H          -1.1934    6.8152   16.4117 H       1  UNL1        0.0000
     29 C          -0.5848    4.1256   17.8589 C.3     1  UNL1        0.0000
     30 C           0.0437    5.2710   18.6574 C.3     1  UNL1        0.0000
     31 H          -0.3284    5.2632   19.6834 H       1  UNL1        0.0000
     32 H          -0.1791    6.2425   18.2325 H       1  UNL1        0.0000
     33 H           1.1223    5.1436   18.6872 H       1  UNL1        0.0000
     34 C          -0.2662    2.8552   18.6503 C.3     1  UNL1        0.0000
     35 H          -0.5519    2.9774   19.6964 H       1  UNL1        0.0000
     36 H           0.8035    2.6592   18.6035 H       1  UNL1        0.0000
     37 H          -0.8069    1.9980   18.2617 H       1  UNL1        0.0000
     38 C          -2.1012    4.3210   17.8457 C.3     1  UNL1        0.0000
     39 H          -2.4895    4.3080   18.8652 H       1  UNL1        0.0000
     40 H          -2.5974    3.5338   17.2860 H       1  UNL1        0.0000
     41 H          -2.3707    5.2752   17.4015 H       1  UNL1        0.0000
@<TRIPOS>BOND
     1    18    17    1
     2    11     8    1
     3    19    17    1
     4     9     8    1
     5    24    21    1
     6    10     8    1
     7    22    21    1
     8     8     3    1
     9    17    20    1
    10    17    16    1
    11    21    16    1
    12    21    23    1
    13    14    12    1
    14    13    12    1
    15    16    25    1
    16    16     1    1
    17    26    25    1
    18     3    12    1
    19     3     4    1
    20     3     1    1
    21    12    15    1
    22     5     4    1
    23    25    27    1
    24    25    28    1
    25     4     7    1
    26     4     6    1
    27     1     2    1
    28     1    29    1
    29    40    38    1
    30    41    38    1
    31    38    29    1
    32    38    39    1
    33    29    34    1
    34    29    30    1
    35    32    30    1
    36    37    34    1
    37    36    34    1
    38    34    35    1
    39    30    33    1
    40    30    31    1
