@<TRIPOS>MOLECULE
2
 41 40 0 0 0
SMALL
GASTEIGER

@<TRIPOS>ATOM
      1 SI          6.9567    5.2166   15.8603 Si      1  UNL1        0.0000
      2 O           5.4398    4.8006   16.1102 O.3     1  UNL1        0.0000
      3 C           6.9409    6.7301   14.6078 C.3     1  UNL1        0.0000
      4 C           8.2927    6.9358   13.9237 C.3     1  UNL1        0.0000
      5 H           8.2673    7.8323   13.3020 H       1  UNL1        0.0000
      6 H           8.5434    6.0960   13.2828 H       1  UNL1        0.0000
      7 H           9.0861    7.0557   14.6557 H       1  UNL1        0.0000
      8 C           5.8733    6.5244   13.5301 C.3     1  UNL1        0.0000
      9 H           5.8986    7.3459   12.8120 H       1  UNL1        0.0000
     10 H           4.8874    6.5106   13.9887 H       1  UNL1        0.0000
     11 H           6.0119    5.5955   12.9886 H       1  UNL1        0.0000
     12 C           6.5776    8.0404   15.3118 C.3     1  UNL1        0.0000
     13 H           6.4293    8.8316   14.5744 H       1  UNL1        0.0000
     14 H           7.3700    8.3615   15.9812 H       1  UNL1        0.0000
     15 H           5.6574    7.9309   15.8812 H       1  UNL1        0.0000
     16 C           7.7412    5.7153   17.5926 C.3     1  UNL1        0.0000
     17 C           9.1159    6.3780   17.4999 C.3     1  UNL1        0.0000
     18 H           9.5099    6.5649   18.4999 H       1  UNL1        0.0000
     19 H           9.0562    7.3325   16.9839 H       1  UNL1        0.0000
     20 H           9.8255    5.7499   16.9700 H       1  UNL1        0.0000
     21 C           7.8593    4.4630   18.4643 C.3     1  UNL1        0.0000
     22 H           8.1160    4.7351   19.4895 H       1  UNL1        0.0000
     23 H           8.6348    3.7972   18.0988 H       1  UNL1        0.0000
     24 H           6.9058    3.9360   18.4729 H       1  UNL1        0.0000
     25 C           6.8068    6.6584   18.3559 C.3     1  UNL1        0.0000
     26 H           7.1782    6.8157   19.3701 H       1  UNL1        0.0000
     27 H           5.8167    6.2180   18.4230 H       1  UNL1        0.0000
     28 H           6.7227    7.6289   17.8819 H       1  UNL1        0.0000
     29 C           7.8301    3.6183   15.1061 C.3     1  UNL1        0.0000
     30 C           9.3591    3.6560   15.1098 C.3     1  UNL1        0.0000
     31 H           9.7575    2.7526   14.6453 H       1  UNL1        0.0000
     32 H           9.7488    3.7062   16.1225 H       1  UNL1        0.0000
     33 H           9.7333    4.5125   14.5564 H       1  UNL1        0.0000
     34 C           7.3763    2.3828   15.8956 C.3     1  UNL1        0.0000
     35 H           7.5730    1.4746   15.3235 H       1  UNL1        0.0000
     36 H           6.3054    2.4389   16.1122 H       1  UNL1        0.0000
     37 H           7.9092    2.3000   16.8368 H       1  UNL1        0.0000
     38 C           7.3752    3.3951   13.6611 C.3     1  UNL1        0.0000
     39 H           7.7682    2.4499   13.2817 H       1  UNL1        0.0000
     40 H           7.7289    4.1835   13.0034 H       1  UNL1        0.0000
     41 H           6.2908    3.3534   13.6075 H       1  UNL1        0.0000
@<TRIPOS>BOND
     1     9     8    1
     2    11     8    1
     3    40    38    1
     4    39    38    1
     5     6     4    1
     6     5     4    1
     7     8    10    1
     8     8     3    1
     9    41    38    1
    10    38    29    1
    11     4     3    1
    12     4     7    1
    13    33    30    1
    14    13    12    1
    15     3    12    1
    16     3     1    1
    17    31    30    1
    18    29    30    1
    19    29     1    1
    20    29    34    1
    21    30    32    1
    22    12    15    1
    23    12    14    1
    24    35    34    1
    25     1     2    1
    26     1    16    1
    27    34    36    1
    28    34    37    1
    29    20    17    1
    30    19    17    1
    31    17    16    1
    32    17    18    1
    33    16    25    1
    34    16    21    1
    35    28    25    1
    36    23    21    1
    37    25    27    1
    38    25    26    1
    39    21    24    1
    40    21    22    1
