@<TRIPOS>MOLECULE
2
 41 40 0 0 0
SMALL
GASTEIGER

@<TRIPOS>ATOM
      1 SI         -0.4966    2.4249    7.7539 Si      1  UNL1        0.0000
      2 O          -0.3689    3.5606    8.8523 O.3     1  UNL1        0.0000
      3 C           1.2212    1.4924    7.9036 C.3     1  UNL1        0.0000
      4 C           2.3349    2.5204    7.7176 C.3     1  UNL1        0.0000
      5 H           3.3003    2.0937    7.9982 H       1  UNL1        0.0000
      6 H           2.1549    3.3964    8.4063 H       1  UNL1        0.0000
      7 H           2.4156    2.8593    6.6862 H       1  UNL1        0.0000
      8 C           1.3840    0.9899    9.3381 C.3     1  UNL1        0.0000
      9 H           2.3938    0.6049    9.4884 H       1  UNL1        0.0000
     10 H           0.6923    0.1912    9.5754 H       1  UNL1        0.0000
     11 H           1.2228    1.8186   10.0287 H       1  UNL1        0.0000
     12 C           1.4344    0.3221    6.9440 C.3     1  UNL1        0.0000
     13 H           2.4069   -0.1394    7.1202 H       1  UNL1        0.0000
     14 H           1.3933    0.6362    5.9049 H       1  UNL1        0.0000
     15 H           0.6725   -0.4378    7.0977 H       1  UNL1        0.0000
     16 C          -2.0731    1.3248    8.0587 C.3     1  UNL1        0.0000
     17 C          -1.8335    0.2962    9.1650 C.3     1  UNL1        0.0000
     18 H          -2.7684   -0.2117    9.4065 H       1  UNL1        0.0000
     19 H          -1.4690    0.7762   10.0689 H       1  UNL1        0.0000
     20 H          -1.1236   -0.4630    8.8477 H       1  UNL1        0.0000
     21 C          -2.4950    0.5558    6.8075 C.3     1  UNL1        0.0000
     22 H          -3.3394   -0.0954    7.0358 H       1  UNL1        0.0000
     23 H          -1.6809   -0.0653    6.4412 H       1  UNL1        0.0000
     24 H          -2.8011    1.2235    6.0075 H       1  UNL1        0.0000
     25 C          -3.2336    2.2024    8.5346 C.3     1  UNL1        0.0000
     26 H          -4.0954    1.5825    8.7843 H       1  UNL1        0.0000
     27 H          -3.5452    2.9141    7.7775 H       1  UNL1        0.0000
     28 H          -2.9398    2.7504    9.4268 H       1  UNL1        0.0000
     29 C          -0.5992    3.4703    6.0720 C.3     1  UNL1        0.0000
     30 C          -0.2654    2.6932    4.7968 C.3     1  UNL1        0.0000
     31 H          -0.4193    3.3228    3.9190 H       1  UNL1        0.0000
     32 H          -0.8994    1.8171    4.6980 H       1  UNL1        0.0000
     33 H           0.7712    2.3662    4.7922 H       1  UNL1        0.0000
     34 C          -2.0081    4.0489    5.9164 C.3     1  UNL1        0.0000
     35 H          -2.0469    4.7514    5.0810 H       1  UNL1        0.0000
     36 H          -2.3055    4.5730    6.8227 H       1  UNL1        0.0000
     37 H          -2.7351    3.2682    5.7177 H       1  UNL1        0.0000
     38 C           0.3592    4.6593    6.1759 C.3     1  UNL1        0.0000
     39 H           0.0368    5.4735    5.5219 H       1  UNL1        0.0000
     40 H           1.3717    4.3927    5.8785 H       1  UNL1        0.0000
     41 H           0.3640    5.0882    7.2196 H       1  UNL1        0.0000
@<TRIPOS>BOND
     1    31    30    1
     2    32    30    1
     3    33    30    1
     4    30    29    1
     5    35    34    1
     6    39    38    1
     7    37    34    1
     8    40    38    1
     9    14    12    1
    10    34    29    1
    11    34    36    1
    12    24    21    1
    13    29    38    1
    14    29     1    1
    15    38    41    1
    16    23    21    1
    17     7     4    1
    18    21    22    1
    19    21    16    1
    20    12    15    1
    21    12    13    1
    22    12     3    1
    23     4     3    1
    24     4     5    1
    25     4     6    1
    26     1     3    1
    27     1    16    1
    28     1     2    1
    29    27    25    1
    30     3     8    1
    31    16    25    1
    32    16    17    1
    33    25    26    1
    34    25    28    1
    35    20    17    1
    36    17    18    1
    37    17    19    1
    38     8     9    1
    39     8    10    1
    40     8    11    1
