@<TRIPOS>MOLECULE
2
 37 38 0 0 0
SMALL
GASTEIGER

@<TRIPOS>ATOM
      1 SI          7.5390   -2.6300    4.1557 Si      1  UNL1        0.0000
      2 O           7.8390   -1.0600    4.1380 O.3     1  UNL1        0.0000
      3 C           6.2765   -2.8623    2.7013 C.3     1  UNL1        0.0000
      4 C           6.8841   -2.2731    1.4263 C.3     1  UNL1        0.0000
      5 C           5.0086   -2.0780    3.0491 C.3     1  UNL1        0.0000
      6 C           5.9133   -4.3267    2.4615 C.3     1  UNL1        0.0000
      7 C           9.1891   -3.5363    3.8996 C.ar    1  UNL1        0.0000
      8 C          10.3680   -2.7969    3.8503 C.ar    1  UNL1        0.0000
      9 C          11.5925   -3.4131    3.6672 C.ar    1  UNL1        0.0000
     10 C          11.6623   -4.7892    3.5318 C.ar    1  UNL1        0.0000
     11 C          10.5007   -5.5415    3.5808 C.ar    1  UNL1        0.0000
     12 C           9.2797   -4.9173    3.7630 C.ar    1  UNL1        0.0000
     13 C           6.7384   -3.0659    5.8251 C.ar    1  UNL1        0.0000
     14 C           6.6671   -4.3607    6.3278 C.ar    1  UNL1        0.0000
     15 C           6.0652   -4.6228    7.5457 C.ar    1  UNL1        0.0000
     16 C           5.5889   -2.2900    7.8033 C.ar    1  UNL1        0.0000
     17 C           6.1882   -2.0338    6.5830 C.ar    1  UNL1        0.0000
     18 C           5.5244   -3.5861    8.2874 C.ar    1  UNL1        0.0000
     19 H           7.1362   -1.2208    1.5820 H       1  UNL1        0.0000
     20 H           6.1779   -2.3336    0.5971 H       1  UNL1        0.0000
     21 H           7.7938   -2.8029    1.1475 H       1  UNL1        0.0000
     22 H           5.2551   -1.0406    3.2927 H       1  UNL1        0.0000
     23 H           4.5081   -2.5177    3.9103 H       1  UNL1        0.0000
     24 H           4.3145   -2.0765    2.2076 H       1  UNL1        0.0000
     25 H           5.5184   -4.7769    3.3701 H       1  UNL1        0.0000
     26 H           6.7879   -4.8912    2.1462 H       1  UNL1        0.0000
     27 H           5.1558   -4.4085    1.6811 H       1  UNL1        0.0000
     28 H          10.3154   -1.7215    3.9550 H       1  UNL1        0.0000
     29 H          12.4943   -2.8186    3.6294 H       1  UNL1        0.0000
     30 H          12.6178   -5.2758    3.3883 H       1  UNL1        0.0000
     31 H          10.5485   -6.6175    3.4757 H       1  UNL1        0.0000
     32 H           8.3803   -5.5149    3.7968 H       1  UNL1        0.0000
     33 H           7.0948   -5.1742    5.7600 H       1  UNL1        0.0000
     34 H           6.0193   -5.6371    7.9201 H       1  UNL1        0.0000
     35 H           5.0557   -3.7889    9.2411 H       1  UNL1        0.0000
     36 H           5.1704   -1.4763    8.3783 H       1  UNL1        0.0000
     37 H           6.2329   -1.0193    6.2023 H       1  UNL1        0.0000
@<TRIPOS>BOND
     1    20     4    1
     2    21     4    1
     3     4    19    1
     4     4     3    1
     5    27     6    1
     6    26     6    1
     7    24     5    1
     8     6     3    1
     9     6    25    1
    10     3     5    1
    11     3     1    1
    12     5    22    1
    13     5    23    1
    14    30    10    1
    15    31    11    1
    16    10    11   ar
    17    10     9   ar
    18    11    12   ar
    19    29     9    1
    20     9     8   ar
    21    12    32    1
    22    12     7   ar
    23     8     7   ar
    24     8    28    1
    25     7     1    1
    26     2     1    1
    27     1    13    1
    28    33    14    1
    29    13    14   ar
    30    13    17   ar
    31    37    17    1
    32    14    15   ar
    33    17    16   ar
    34    15    34    1
    35    15    18   ar
    36    16    18   ar
    37    16    36    1
    38    18    35    1
