@<TRIPOS>MOLECULE
1
 13 13 0 0 0
SMALL
GASTEIGER

@<TRIPOS>ATOM
      1 O          12.1747   18.2483   19.1963 O.3     1  UNL1       -0.3798
      2 C          13.2827   19.1152   19.4449 C.3     1  UNL1        0.0477
      3 H          13.1342   19.5835   20.4174 H       1  UNL1        0.0560
      4 H          13.3273   19.8842   18.6644 H       1  UNL1        0.0560
      5 C          14.5036   18.1990   19.3867 C.3     1  UNL1       -0.0274
      6 H          14.6255   17.6840   20.3396 H       1  UNL1        0.0288
      7 H          15.4168   18.7455   19.1655 H       1  UNL1        0.0288
      8 C          14.1213   17.2072   18.2804 C.3     1  UNL1       -0.0274
      9 H          14.6223   17.4479   17.3442 H       1  UNL1        0.0288
     10 H          14.3838   16.1853   18.5479 H       1  UNL1        0.0288
     11 C          12.5983   17.3889   18.1337 C.3     1  UNL1        0.0477
     12 H          12.0388   16.4553   18.2187 H       1  UNL1        0.0560
     13 H          12.3658   17.8646   17.1773 H       1  UNL1        0.0560
@<TRIPOS>BOND
     1    13    11    1
     2     9     8    1
     3    11    12    1
     4    11     8    1
     5    11     1    1
     6     8    10    1
     7     8     5    1
     8     4     2    1
     9     7     5    1
    10     1     2    1
    11     5     2    1
    12     5     6    1
    13     2     3    1
