@<TRIPOS>MOLECULE
1
 13 13 0 0 0
SMALL
GASTEIGER

@<TRIPOS>ATOM
      1 O          -1.0981    6.4571    4.0387 O.3     1  UNL1       -0.3798
      2 C          -1.0606    7.6600    4.7991 C.3     1  UNL1        0.0477
      3 H          -1.5672    8.4618    4.2409 H       1  UNL1        0.0560
      4 H          -0.0180    7.9304    4.9658 H       1  UNL1        0.0560
      5 C          -1.8182    7.3349    6.0857 C.3     1  UNL1       -0.0274
      6 H          -1.1430    6.8407    6.7837 H       1  UNL1        0.0288
      7 H          -2.2295    8.2248    6.5561 H       1  UNL1        0.0288
      8 C          -2.8998    6.3597    5.6005 C.3     1  UNL1       -0.0274
      9 H          -2.9705    5.4914    6.2510 H       1  UNL1        0.0288
     10 H          -3.8788    6.8348    5.5556 H       1  UNL1        0.0288
     11 C          -2.4246    5.9566    4.1923 C.3     1  UNL1        0.0477
     12 H          -2.3931    4.8755    4.0510 H       1  UNL1        0.0560
     13 H          -3.0683    6.4092    3.4249 H       1  UNL1        0.0560
@<TRIPOS>BOND
     1    13    11    1
     2     1    11    1
     3     1     2    1
     4    12    11    1
     5    11     8    1
     6     3     2    1
     7     2     4    1
     8     2     5    1
     9    10     8    1
    10     8     5    1
    11     8     9    1
    12     5     7    1
    13     5     6    1
