@<TRIPOS>MOLECULE
1
 13 13 0 0 0
SMALL
GASTEIGER

@<TRIPOS>ATOM
      1 O           2.9182    3.1264    4.7140 O.3     1  UNL1       -0.3798
      2 C           4.1981    3.5493    5.1657 C.3     1  UNL1        0.0477
      3 H           4.3577    4.5747    4.8313 H       1  UNL1        0.0560
      4 H           4.9684    2.8967    4.7281 H       1  UNL1        0.0560
      5 C           4.1757    3.4054    6.6952 C.3     1  UNL1       -0.0274
      6 H           5.1382    3.0667    7.0734 H       1  UNL1        0.0288
      7 H           3.9345    4.3589    7.1616 H       1  UNL1        0.0288
      8 C           3.0551    2.3807    6.9413 C.3     1  UNL1       -0.0274
      9 H           2.2303    2.8462    7.4775 H       1  UNL1        0.0288
     10 H           3.3961    1.5121    7.5008 H       1  UNL1        0.0288
     11 C           2.6081    2.0003    5.5240 C.3     1  UNL1        0.0477
     12 H           3.1739    1.1275    5.1643 H       1  UNL1        0.0560
     13 H           1.5392    1.8029    5.4400 H       1  UNL1        0.0560
@<TRIPOS>BOND
     1     1     2    1
     2     1    11    1
     3     4     2    1
     4     3     2    1
     5    12    11    1
     6     2     5    1
     7    13    11    1
     8    11     8    1
     9     5     8    1
    10     5     6    1
    11     5     7    1
    12     8     9    1
    13     8    10    1
