@<TRIPOS>MOLECULE
2
 14 13 0 0 0
SMALL
GASTEIGER

@<TRIPOS>ATOM
      1 SI          8.5731   10.7740    6.0055 Si      1  UNL1        0.0000
      2 O           7.5900   12.0628    6.0482 O.3     1  UNL1        0.0000
      3 C          10.3344   11.5145    6.1755 C.3     1  UNL1        0.0000
      4 H          11.0731   10.7869    6.4929 H       1  UNL1        0.0000
      5 H          10.6837   11.9520    5.2424 H       1  UNL1        0.0000
      6 H          10.2917   12.3085    6.9242 H       1  UNL1        0.0000
      7 C           8.1058    9.6489    7.4811 C.3     1  UNL1        0.0000
      8 H           8.8382    8.8682    7.6553 H       1  UNL1        0.0000
      9 H           8.0349   10.2586    8.3797 H       1  UNL1        0.0000
     10 H           7.1416    9.1699    7.3297 H       1  UNL1        0.0000
     11 C           8.3373    9.8690    4.3320 C.3     1  UNL1        0.0000
     12 H           8.9865    9.0025    4.2725 H       1  UNL1        0.0000
     13 H           7.3152    9.5221    4.2078 H       1  UNL1        0.0000
     14 H           8.5713   10.5121    3.4879 H       1  UNL1        0.0000
@<TRIPOS>BOND
     1    14    11    1
     2    13    11    1
     3    12    11    1
     4    11     1    1
     5     5     3    1
     6     1     2    1
     7     1     3    1
     8     1     7    1
     9     3     4    1
    10     3     6    1
    11    10     7    1
    12     7     8    1
    13     7     9    1
