@<TRIPOS>MOLECULE
2
 14 13 0 0 0
SMALL
GASTEIGER

@<TRIPOS>ATOM
      1 SI          8.5731   16.5801    6.0052 Si      1  UNL1        0.0000
      2 O           7.5899   15.2913    6.0481 O.3     1  UNL1        0.0000
      3 C          10.3345   15.8392    6.1730 C.3     1  UNL1        0.0000
      4 H          11.0735   16.5666    6.4900 H       1  UNL1        0.0000
      5 H          10.6828   15.4023    5.2392 H       1  UNL1        0.0000
      6 H          10.2925   15.0448    6.9212 H       1  UNL1        0.0000
      7 C           8.1074   17.7044    7.4818 C.3     1  UNL1        0.0000
      8 H           8.8401   18.4847    7.6559 H       1  UNL1        0.0000
      9 H           8.0372   17.0940    8.3801 H       1  UNL1        0.0000
     10 H           7.1431   18.1836    7.3316 H       1  UNL1        0.0000
     11 C           8.3357   17.4859    4.3324 C.3     1  UNL1        0.0000
     12 H           8.9848   18.3525    4.2727 H       1  UNL1        0.0000
     13 H           7.3135   17.8329    4.2093 H       1  UNL1        0.0000
     14 H           8.5691   16.8434    3.4877 H       1  UNL1        0.0000
@<TRIPOS>BOND
     1    14    11    1
     2    13    11    1
     3    12    11    1
     4    11     1    1
     5     5     3    1
     6     1     2    1
     7     1     3    1
     8     1     7    1
     9     3     4    1
    10     3     6    1
    11    10     7    1
    12     7     8    1
    13     7     9    1
