@<TRIPOS>MOLECULE
1
 36 36 0 0 0
SMALL
GASTEIGER

@<TRIPOS>ATOM
      1 O           3.0250    3.1973   18.9856 O.3     1  UNL1       -0.2873
      2 C           2.5277    2.5278   20.0101 C.ar    1  UNL1        0.1863
      3 C           3.3124    1.5500   20.6868 C.ar    1  UNL1        0.0049
      4 C           2.7182    0.7836   21.6755 C.ar    1  UNL1       -0.0544
      5 C           1.4002    0.9722   22.0422 C.ar    1  UNL1       -0.0610
      6 C           0.6708    1.9934   21.4655 C.ar    1  UNL1       -0.0544
      7 C           1.2080    2.7989   20.4756 C.ar    1  UNL1        0.0049
      8 C           4.7859    1.3436   20.3331 C.3     1  UNL1       -0.0090
      9 C           5.5319    2.6863   20.3577 C.3     1  UNL1       -0.0559
     10 C           4.8949    0.7117   18.9393 C.3     1  UNL1       -0.0559
     11 C           5.5076    0.4109   21.3156 C.3     1  UNL1       -0.0559
     12 C           0.4152    3.9890   19.9323 C.3     1  UNL1       -0.0090
     13 C          -0.8920    4.2278   20.7020 C.3     1  UNL1       -0.0559
     14 C           1.2607    5.2629   20.0752 C.3     1  UNL1       -0.0559
     15 C           0.0315    3.7748   18.4596 C.3     1  UNL1       -0.0559
     16 H           3.2789    0.0151   22.1807 H       1  UNL1        0.0622
     17 H           0.9525    0.3460   22.7995 H       1  UNL1        0.0618
     18 H          -0.3378    2.1501   21.8099 H       1  UNL1        0.0622
     19 H           6.5849    2.5357   20.1220 H       1  UNL1        0.0238
     20 H           5.1075    3.3801   19.6335 H       1  UNL1        0.0238
     21 H           5.4589    3.1339   21.3470 H       1  UNL1        0.0238
     22 H           4.3578   -0.2347   18.9027 H       1  UNL1        0.0238
     23 H           4.4713    1.3856   18.1810 H       1  UNL1        0.0238
     24 H           5.9371    0.5168   18.6893 H       1  UNL1        0.0238
     25 H           5.1173   -0.6023   21.2624 H       1  UNL1        0.0238
     26 H           6.5648    0.3709   21.0590 H       1  UNL1        0.0238
     27 H           5.4220    0.7751   22.3365 H       1  UNL1        0.0238
     28 H          -0.7011    4.3685   21.7627 H       1  UNL1        0.0238
     29 H          -1.3684    5.1309   20.3242 H       1  UNL1        0.0238
     30 H          -1.5897    3.4042   20.5705 H       1  UNL1        0.0238
     31 H           2.1820    5.1797   19.5041 H       1  UNL1        0.0238
     32 H           0.7041    6.1281   19.7197 H       1  UNL1        0.0238
     33 H           1.5167    5.4207   21.1211 H       1  UNL1        0.0238
     34 H          -0.5305    2.8478   18.3488 H       1  UNL1        0.0238
     35 H          -0.5955    4.5992   18.1211 H       1  UNL1        0.0238
     36 H           0.9236    3.7406   17.8135 H       1  UNL1        0.0238
@<TRIPOS>BOND
     1    36    15    1
     2    35    15    1
     3    23    10    1
     4    34    15    1
     5    15    12    1
     6    24    10    1
     7    22    10    1
     8    10     8    1
     9     1     2    1
    10    31    14    1
    11    20     9    1
    12    32    14    1
    13    12    14    1
    14    12     7    1
    15    12    13    1
    16     2     7   ar
    17     2     3   ar
    18    14    33    1
    19    19     9    1
    20    29    13    1
    21     8     9    1
    22     8     3    1
    23     8    11    1
    24     9    21    1
    25     7     6   ar
    26    30    13    1
    27     3     4   ar
    28    13    28    1
    29    26    11    1
    30    25    11    1
    31    11    27    1
    32     6    18    1
    33     6     5   ar
    34     4     5   ar
    35     4    16    1
    36     5    17    1
