@<TRIPOS>MOLECULE
1
 36 36 0 0 0
SMALL
GASTEIGER

@<TRIPOS>ATOM
      1 O           3.3261    1.3729   15.7647 O.3     1  UNL1       -0.2873
      2 C           3.7797    0.1389   15.8976 C.ar    1  UNL1        0.1863
      3 C           5.1242   -0.1756   15.5442 C.ar    1  UNL1        0.0049
      4 C           5.6043   -1.4469   15.8103 C.ar    1  UNL1       -0.0544
      5 C           4.7996   -2.4221   16.3661 C.ar    1  UNL1       -0.0610
      6 C           3.4673   -2.1517   16.6096 C.ar    1  UNL1       -0.0544
      7 C           2.9266   -0.8993   16.3715 C.ar    1  UNL1        0.0049
      8 C           6.0099    0.8556   14.8423 C.3     1  UNL1       -0.0090
      9 C           6.3530    2.0237   15.7814 C.3     1  UNL1       -0.0559
     10 C           5.2830    1.3790   13.5951 C.3     1  UNL1       -0.0559
     11 C           7.3446    0.2618   14.3688 C.3     1  UNL1       -0.0559
     12 C           1.4370   -0.6436   16.6057 C.3     1  UNL1       -0.0090
     13 C           0.6563   -1.9262   16.9242 C.3     1  UNL1       -0.0559
     14 C           1.2475    0.3085   17.7956 C.3     1  UNL1       -0.0559
     15 C           0.8092   -0.0355   15.3427 C.3     1  UNL1       -0.0559
     16 H           6.6264   -1.7030   15.5866 H       1  UNL1        0.0622
     17 H           5.2028   -3.4005   16.5813 H       1  UNL1        0.0618
     18 H           2.8525   -2.9466   16.9976 H       1  UNL1        0.0622
     19 H           6.8502    1.6523   16.6773 H       1  UNL1        0.0238
     20 H           7.0272    2.7151   15.2763 H       1  UNL1        0.0238
     21 H           5.4490    2.5854   16.0729 H       1  UNL1        0.0238
     22 H           5.9090    2.0946   13.0654 H       1  UNL1        0.0238
     23 H           5.0583    0.5513   12.9251 H       1  UNL1        0.0238
     24 H           4.3493    1.8648   13.8671 H       1  UNL1        0.0238
     25 H           7.9648   -0.0478   15.2067 H       1  UNL1        0.0238
     26 H           7.1825   -0.5885   13.7114 H       1  UNL1        0.0238
     27 H           7.8936    1.0180   13.8103 H       1  UNL1        0.0238
     28 H          -0.4036   -1.6895   16.9993 H       1  UNL1        0.0238
     29 H           0.7804   -2.6660   16.1372 H       1  UNL1        0.0238
     30 H           0.9671   -2.3563   17.8730 H       1  UNL1        0.0238
     31 H           1.7070   -0.1011   18.6942 H       1  UNL1        0.0238
     32 H           1.7009    1.2892   17.5823 H       1  UNL1        0.0238
     33 H           0.1862    0.4553   17.9949 H       1  UNL1        0.0238
     34 H           1.3011    0.8989   15.0806 H       1  UNL1        0.0238
     35 H           0.9140   -0.7252   14.5074 H       1  UNL1        0.0238
     36 H          -0.2510    0.1572   15.5027 H       1  UNL1        0.0238
@<TRIPOS>BOND
     1    23    10    1
     2    22    10    1
     3    10    24    1
     4    10     8    1
     5    26    11    1
     6    27    11    1
     7    11     8    1
     8    11    25    1
     9    35    15    1
    10     8     3    1
    11     8     9    1
    12    34    15    1
    13    20     9    1
    14    15    36    1
    15    15    12    1
    16     3     4   ar
    17     3     2   ar
    18    16     4    1
    19     1     2    1
    20     9    21    1
    21     9    19    1
    22     4     5   ar
    23     2     7   ar
    24    29    13    1
    25     5    17    1
    26     5     6   ar
    27     7    12    1
    28     7     6   ar
    29    12    13    1
    30    12    14    1
    31     6    18    1
    32    13    28    1
    33    13    30    1
    34    32    14    1
    35    14    33    1
    36    14    31    1
