@<TRIPOS>MOLECULE
4
 30 30 0 0 0
SMALL
GASTEIGER

@<TRIPOS>ATOM
      1 SI          1.2768   12.2268   12.8219 Si      1  UNL1        0.0000
      2 N           2.9247   12.3792   16.1855 N.3     1  UNL1        0.0000
      3 N           2.0883   12.5179   15.4236 N.3     1  UNL1        0.0000
      4 O           0.0052   13.7207   16.5070 O.3     1  UNL1        0.0000
      5 C          -0.1578   13.3120   15.2173 C.3     1  UNL1        0.0000
      6 H          -0.4245   14.1605   14.5552 H       1  UNL1        0.0000
      7 C          -1.2372   12.2527   15.0822 C.ar    1  UNL1        0.0000
      8 C          -1.1324   11.0552   15.7782 C.ar    1  UNL1        0.0000
      9 H          -0.2671   10.8812   16.4003 H       1  UNL1        0.0000
     10 C          -2.1167   10.0902   15.6694 C.ar    1  UNL1        0.0000
     11 H          -2.0208    9.1598   16.2107 H       1  UNL1        0.0000
     12 C          -3.2194   10.3109   14.8608 C.ar    1  UNL1        0.0000
     13 H          -3.9870    9.5559   14.7708 H       1  UNL1        0.0000
     14 C          -3.3327   11.5028   14.1662 C.ar    1  UNL1        0.0000
     15 H          -4.1922   11.6808   13.5361 H       1  UNL1        0.0000
     16 C          -2.3473   12.4691   14.2772 C.ar    1  UNL1        0.0000
     17 H          -2.4369   13.4018   13.7383 H       1  UNL1        0.0000
     18 C           1.1459   12.7173   14.6308 C.3     1  UNL1        0.0000
     19 C           0.3916   13.5337   11.7556 C.3     1  UNL1        0.0000
     20 H           0.5825   13.3709   10.6993 H       1  UNL1        0.0000
     21 H           0.7162   14.5399   12.0000 H       1  UNL1        0.0000
     22 H          -0.6819   13.4925   11.9061 H       1  UNL1        0.0000
     23 C           0.4837   10.5145   12.5239 C.3     1  UNL1        0.0000
     24 H           0.9596    9.7466   13.1269 H       1  UNL1        0.0000
     25 H           0.5713   10.2155   11.4837 H       1  UNL1        0.0000
     26 H          -0.5719   10.5214   12.7790 H       1  UNL1        0.0000
     27 C           3.1327   12.1586   12.3855 C.3     1  UNL1        0.0000
     28 H           3.6631   11.4672   13.0329 H       1  UNL1        0.0000
     29 H           3.6067   13.1298   12.4893 H       1  UNL1        0.0000
     30 H           3.2811   11.8282   11.3626 H       1  UNL1        0.0000
@<TRIPOS>BOND
     1    20    19    1
     2    30    27    1
     3    25    23    1
     4    19    22    1
     5    19    21    1
     6    19     1    1
     7    27    29    1
     8    27     1    1
     9    27    28    1
    10    23    26    1
    11    23     1    1
    12    23    24    1
    13     1    18    1
    14    15    14    1
    15    17    16    1
    16    14    16   ar
    17    14    12   ar
    18    16     7   ar
    19     6     5    1
    20    18     5    1
    21    18     3    1
    22    13    12    1
    23    12    10   ar
    24     7     5    1
    25     7     8   ar
    26     5     4    1
    27     3     2    1
    28    10     8   ar
    29    10    11    1
    30     8     9    1
