@<TRIPOS>MOLECULE
2
 25 24 0 0 0
SMALL
GASTEIGER

@<TRIPOS>ATOM
      1 SI         -0.8557   -0.3834   10.5137 Si      1  UNL1        0.0000
      2 O          -2.9362    3.0642   11.3636 O.3     1  UNL1        0.0000
      3 N          -3.8836    0.0667   12.5859 N.3     1  UNL1        0.0000
      4 N          -2.9611    0.4385   12.0327 N.3     1  UNL1        0.0000
      5 C          -1.9777    0.8556   11.3819 C.3     1  UNL1        0.0000
      6 C          -1.1458   -0.3450    8.6247 C.3     1  UNL1        0.0000
      7 H          -2.1281   -0.7269    8.3626 H       1  UNL1        0.0000
      8 H          -0.4096   -0.9535    8.1083 H       1  UNL1        0.0000
      9 H          -1.0700    0.6661    8.2389 H       1  UNL1        0.0000
     10 C          -1.3188   -2.1097   11.1774 C.3     1  UNL1        0.0000
     11 H          -1.1383   -2.1890   12.2448 H       1  UNL1        0.0000
     12 H          -0.7373   -2.8840   10.6880 H       1  UNL1        0.0000
     13 H          -2.3681   -2.3315   11.0083 H       1  UNL1        0.0000
     14 C           0.9767   -0.0186   10.8940 C.3     1  UNL1        0.0000
     15 H           1.2449    0.9876   10.5894 H       1  UNL1        0.0000
     16 H           1.6232   -0.7093   10.3613 H       1  UNL1        0.0000
     17 H           1.1958   -0.1180   11.9530 H       1  UNL1        0.0000
     18 C          -0.9117    2.7259   12.6526 C.3     1  UNL1        0.0000
     19 H          -0.7153    3.7954   12.6798 H       1  UNL1        0.0000
     20 H           0.0290    2.1818   12.6371 H       1  UNL1        0.0000
     21 H          -1.4764    2.4552   13.5407 H       1  UNL1        0.0000
     22 C          -1.7457    2.3939   11.3925 C.3     1  UNL1        0.0000
     23 C          -0.9250    2.7385   10.2228 C.1     1  UNL1        0.0000
     24 C          -0.3014    3.1393    9.2807 C.1     1  UNL1        0.0000
     25 H           0.2708    3.4587    8.4601 H       1  UNL1        0.0000
@<TRIPOS>BOND
     1     8     6    1
     2     9     6    1
     3     7     6    1
     4    25    24    1
     5     6     1    1
     6    24    23    3
     7    23    22    1
     8    16    14    1
     9     1    14    1
    10     1    10    1
    11     1     5    1
    12    15    14    1
    13    12    10    1
    14    14    17    1
    15    13    10    1
    16    10    11    1
    17     2    22    1
    18     5    22    1
    19     5     4    1
    20    22    18    1
    21     4     3    1
    22    20    18    1
    23    18    19    1
    24    18    21    1
