@<TRIPOS>MOLECULE
1
 13 13 0 0 0
SMALL
GASTEIGER

@<TRIPOS>ATOM
      1 O          -0.2004   17.0553    4.2360 O.3     1  UNL1       -0.3798
      2 C          -0.1526   17.9767    5.3361 C.3     1  UNL1        0.0477
      3 H           0.8930   18.2206    5.5398 H       1  UNL1        0.0560
      4 H          -0.5930   17.4869    6.2120 H       1  UNL1        0.0560
      5 C          -1.1439   17.5366    3.2728 C.3     1  UNL1        0.0477
      6 H          -1.7112   16.6857    2.8898 H       1  UNL1        0.0560
      7 H          -0.5978   18.0094    2.4472 H       1  UNL1        0.0560
      8 C          -2.0026   18.5689    3.9940 C.3     1  UNL1       -0.0274
      9 H          -2.4566   19.2804    3.3089 H       1  UNL1        0.0288
     10 H          -2.7852   18.0766    4.5720 H       1  UNL1        0.0288
     11 C          -0.9715   19.1974    4.9256 C.3     1  UNL1       -0.0274
     12 H          -1.4139   19.7015    5.7811 H       1  UNL1        0.0288
     13 H          -0.3464   19.9027    4.3768 H       1  UNL1        0.0288
@<TRIPOS>BOND
     1     7     5    1
     2     6     5    1
     3     5     8    1
     4     5     1    1
     5     9     8    1
     6     8    10    1
     7     8    11    1
     8     1     2    1
     9    13    11    1
    10    11     2    1
    11    11    12    1
    12     2     3    1
    13     2     4    1
