@<TRIPOS>MOLECULE
1
 14 13 0 0 0
SMALL
GASTEIGER

@<TRIPOS>ATOM
      1 O           6.1992    4.6966   14.9512 O.3     1  UNL1       -0.2285
      2 C           5.4677    4.3911   16.0992 C.3     1  UNL1        0.0962
      3 C           5.5526    2.8651   16.2857 C.3     1  UNL1       -0.0333
      4 H           5.1495    2.3920   15.3895 H       1  UNL1        0.0258
      5 H           4.9881    2.5436   17.1574 H       1  UNL1        0.0258
      6 H           6.5937    2.5642   16.4043 H       1  UNL1        0.0258
      7 C           6.0825    5.0934   17.3242 C.3     1  UNL1       -0.0333
      8 H           7.1164    4.7797   17.4608 H       1  UNL1        0.0258
      9 H           5.5180    4.8365   18.2168 H       1  UNL1        0.0258
     10 H           6.0582    6.1731   17.1924 H       1  UNL1        0.0258
     11 C           3.9987    4.8108   15.9236 C.3     1  UNL1       -0.0333
     12 H           3.8687    5.8695   16.1369 H       1  UNL1        0.0258
     13 H           3.3512    4.2396   16.5831 H       1  UNL1        0.0258
     14 H           3.7218    4.6323   14.8818 H       1  UNL1        0.0258
@<TRIPOS>BOND
     1    14    11    1
     2     1     2    1
     3     4     3    1
     4    11     2    1
     5    11    12    1
     6    11    13    1
     7     2     3    1
     8     2     7    1
     9     3     6    1
    10     3     5    1
    11    10     7    1
    12     7     8    1
    13     7     9    1
