@<TRIPOS>MOLECULE
1
 14 13 0 0 0
SMALL
GASTEIGER

@<TRIPOS>ATOM
      1 O           6.1418    2.8590   12.8884 O.3     1  UNL1       -0.2285
      2 C           5.4120    1.7928   12.3629 C.3     1  UNL1        0.0962
      3 C           3.9348    1.9398   12.7556 C.3     1  UNL1       -0.0333
      4 H           3.7793    1.6797   13.8012 H       1  UNL1        0.0258
      5 H           3.3068    1.3050   12.1374 H       1  UNL1        0.0258
      6 H           3.6641    2.9872   12.6059 H       1  UNL1        0.0258
      7 C           5.9984    0.4736   12.8979 C.3     1  UNL1       -0.0333
      8 H           7.0289    0.3632   12.5647 H       1  UNL1        0.0258
      9 H           5.4168   -0.3704   12.5370 H       1  UNL1        0.0258
     10 H           5.9847    0.4734   13.9868 H       1  UNL1        0.0258
     11 C           5.5277    1.8331   10.8303 C.3     1  UNL1       -0.0333
     12 H           5.0731    2.7557   10.4700 H       1  UNL1        0.0258
     13 H           5.0242    0.9781   10.3868 H       1  UNL1        0.0258
     14 H           6.5759    1.8283   10.5329 H       1  UNL1        0.0258
@<TRIPOS>BOND
     1    13    11    1
     2    12    11    1
     3    14    11    1
     4    11     2    1
     5     5     3    1
     6     2     3    1
     7     2     1    1
     8     2     7    1
     9     9     7    1
    10     8     7    1
    11     6     3    1
    12     3     4    1
    13     7    10    1
