@<TRIPOS>MOLECULE
2
 14 13 0 0 0
SMALL
GASTEIGER

@<TRIPOS>ATOM
      1 P           5.8479   11.1434    4.8284 P.3     1  UNL1        0.0196
      2 O           5.2596   12.4387    4.3649 O.3     1  UNL1       -0.2176
      3 C           5.3771   10.8845    6.5788 C.3     1  UNL1       -0.0228
      4 H           5.7246   11.7263    7.1706 H       1  UNL1        0.0296
      5 H           5.8044    9.9633    6.9607 H       1  UNL1        0.0296
      6 H           4.2921   10.8380    6.6400 H       1  UNL1        0.0296
      7 C           5.1918    9.6932    3.9296 C.3     1  UNL1       -0.0228
      8 H           4.1053    9.7315    3.9291 H       1  UNL1        0.0296
      9 H           5.5252    8.7738    4.4016 H       1  UNL1        0.0296
     10 H           5.5479    9.7240    2.9028 H       1  UNL1        0.0296
     11 C           7.6536   11.0701    4.6527 C.3     1  UNL1       -0.0228
     12 H           7.8509   11.5596    3.6921 H       1  UNL1        0.0296
     13 H           8.0133   10.0461    4.6487 H       1  UNL1        0.0296
     14 H           8.1449   11.6234    5.4480 H       1  UNL1        0.0296
@<TRIPOS>BOND
     1    10     7    1
     2    12    11    1
     3     8     7    1
     4     7     9    1
     5     7     1    1
     6     2     1    1
     7    13    11    1
     8    11     1    1
     9    11    14    1
    10     1     3    1
    11     3     6    1
    12     3     5    1
    13     3     4    1
