@<TRIPOS>MOLECULE
1
 41 40 0 0 0
SMALL
GASTEIGER

@<TRIPOS>ATOM
      1 O           8.1443    6.4638    9.0210 O.3     1  UNL1        0.0000
      2 SI          8.2835    8.0620    9.3345 Si      1  UNL1        0.0000
      3 C           6.9341    9.0840    8.3394 C.3     1  UNL1        0.0000
      4 C           5.5721    8.3967    8.4143 C.3     1  UNL1        0.0000
      5 H           4.8568    8.9084    7.7683 H       1  UNL1        0.0000
      6 H           5.1716    8.4022    9.4212 H       1  UNL1        0.0000
      7 H           5.6685    7.3701    8.0793 H       1  UNL1        0.0000
      8 C           7.2901    9.1396    6.8519 C.3     1  UNL1        0.0000
      9 H           6.4588    9.5645    6.2873 H       1  UNL1        0.0000
     10 H           7.4803    8.1376    6.4809 H       1  UNL1        0.0000
     11 H           8.1594    9.7629    6.6683 H       1  UNL1        0.0000
     12 C           6.7781   10.5182    8.8486 C.3     1  UNL1        0.0000
     13 H           6.0838   11.0635    8.2083 H       1  UNL1        0.0000
     14 H           7.7251   11.0488    8.8476 H       1  UNL1        0.0000
     15 H           6.3770   10.5349    9.8580 H       1  UNL1        0.0000
     16 C          10.0815    8.5560    8.7327 C.3     1  UNL1        0.0000
     17 C          10.3436    7.9070    7.3688 C.3     1  UNL1        0.0000
     18 H          11.4088    7.9290    7.1359 H       1  UNL1        0.0000
     19 H           9.8256    8.4350    6.5758 H       1  UNL1        0.0000
     20 H           9.9993    6.8700    7.3743 H       1  UNL1        0.0000
     21 C          11.1099    7.9867    9.7101 C.3     1  UNL1        0.0000
     22 H          12.1173    8.0974    9.3078 H       1  UNL1        0.0000
     23 H          10.9126    6.9301    9.8722 H       1  UNL1        0.0000
     24 H          11.0799    8.5079   10.6624 H       1  UNL1        0.0000
     25 C          10.3417   10.0596    8.6197 C.3     1  UNL1        0.0000
     26 H          11.3817   10.2329    8.3404 H       1  UNL1        0.0000
     27 H          10.1592   10.5624    9.5654 H       1  UNL1        0.0000
     28 H           9.7161   10.5214    7.8619 H       1  UNL1        0.0000
     29 C           8.0742    8.2223   11.2853 C.3     1  UNL1        0.0000
     30 C           8.8347    7.0953   11.9949 C.3     1  UNL1        0.0000
     31 H           8.5009    7.0127   13.0296 H       1  UNL1        0.0000
     32 H           9.9026    7.2845   12.0092 H       1  UNL1        0.0000
     33 H           8.6544    6.1436   11.4913 H       1  UNL1        0.0000
     34 C           6.6034    8.0693   11.6792 C.3     1  UNL1        0.0000
     35 H           6.5058    8.0591   12.7657 H       1  UNL1        0.0000
     36 H           6.2061    7.1348   11.2940 H       1  UNL1        0.0000
     37 H           6.0025    8.8928   11.3054 H       1  UNL1        0.0000
     38 C           8.5648    9.5623   11.8384 C.3     1  UNL1        0.0000
     39 H           8.4005    9.5993   12.9158 H       1  UNL1        0.0000
     40 H           8.0327   10.3949   11.3883 H       1  UNL1        0.0000
     41 H           9.6267    9.7030   11.6607 H       1  UNL1        0.0000
@<TRIPOS>BOND
     1     9     8    1
     2    10     8    1
     3    19    17    1
     4    11     8    1
     5     8     3    1
     6    18    17    1
     7    17    20    1
     8    17    16    1
     9     5     4    1
    10    28    25    1
    11     7     4    1
    12    13    12    1
    13     3     4    1
    14     3    12    1
    15     3     2    1
    16    26    25    1
    17     4     6    1
    18    25    16    1
    19    25    27    1
    20    16     2    1
    21    16    21    1
    22    14    12    1
    23    12    15    1
    24     1     2    1
    25    22    21    1
    26     2    29    1
    27    21    23    1
    28    21    24    1
    29    29    34    1
    30    29    38    1
    31    29    30    1
    32    36    34    1
    33    37    34    1
    34    40    38    1
    35    33    30    1
    36    41    38    1
    37    34    35    1
    38    38    39    1
    39    30    32    1
    40    30    31    1
