@<TRIPOS>MOLECULE
2
 41 40 0 0 0
SMALL
GASTEIGER

@<TRIPOS>ATOM
      1 SI          7.2501   15.9430    5.0257 Si      1  UNL1        0.0000
      2 O           6.6785   14.8699    3.9485 O.3     1  UNL1        0.0000
      3 C           9.1961   15.8938    4.8046 C.3     1  UNL1        0.0000
      4 C           9.6186   14.4367    4.5909 C.3     1  UNL1        0.0000
      5 H          10.6585   14.3863    4.2674 H       1  UNL1        0.0000
      6 H           8.9868   13.9775    3.8317 H       1  UNL1        0.0000
      7 H           9.5326   13.8597    5.5058 H       1  UNL1        0.0000
      8 C           9.6130   16.6664    3.5506 C.3     1  UNL1        0.0000
      9 H          10.6628   16.4744    3.3254 H       1  UNL1        0.0000
     10 H           9.5032   17.7378    3.6863 H       1  UNL1        0.0000
     11 H           9.0151   16.3562    2.7008 H       1  UNL1        0.0000
     12 C           9.9813   16.4761    5.9809 C.3     1  UNL1        0.0000
     13 H           9.8300   15.9019    6.8903 H       1  UNL1        0.0000
     14 H           9.6910   17.5052    6.1742 H       1  UNL1        0.0000
     15 H          11.0482   16.4625    5.7556 H       1  UNL1        0.0000
     16 C           6.5064   17.7013    4.5542 C.3     1  UNL1        0.0000
     17 C           6.4471   17.8009    3.0255 C.3     1  UNL1        0.0000
     18 H           5.9999   16.8927    2.6084 H       1  UNL1        0.0000
     19 H           7.4359   17.9218    2.5966 H       1  UNL1        0.0000
     20 H           5.8436   18.6570    2.7223 H       1  UNL1        0.0000
     21 C           5.0728   17.8727    5.0618 C.3     1  UNL1        0.0000
     22 H           5.0377   17.9215    6.1461 H       1  UNL1        0.0000
     23 H           4.4509   17.0544    4.7223 H       1  UNL1        0.0000
     24 H           4.6537   18.8051    4.6797 H       1  UNL1        0.0000
     25 C           7.3082   18.8805    5.1110 C.3     1  UNL1        0.0000
     26 H           6.8257   19.8186    4.8350 H       1  UNL1        0.0000
     27 H           8.3212   18.9060    4.7249 H       1  UNL1        0.0000
     28 H           7.3598   18.8349    6.1955 H       1  UNL1        0.0000
     29 C           6.6984   15.3520    6.8164 C.3     1  UNL1        0.0000
     30 C           5.2219   14.9475    6.8163 C.3     1  UNL1        0.0000
     31 H           5.0411   14.2043    6.0423 H       1  UNL1        0.0000
     32 H           4.5760   15.7996    6.6419 H       1  UNL1        0.0000
     33 H           4.9521   14.5187    7.7837 H       1  UNL1        0.0000
     34 C           6.9185   16.4160    7.8929 C.3     1  UNL1        0.0000
     35 H           6.6429   16.0199    8.8712 H       1  UNL1        0.0000
     36 H           6.3101   17.2960    7.7091 H       1  UNL1        0.0000
     37 H           7.9583   16.7252    7.9354 H       1  UNL1        0.0000
     38 C           7.4769   14.0994    7.2213 C.3     1  UNL1        0.0000
     39 H           7.0911   13.7038    8.1635 H       1  UNL1        0.0000
     40 H           8.5325   14.3076    7.3644 H       1  UNL1        0.0000
     41 H           7.3626   13.3432    6.4485 H       1  UNL1        0.0000
@<TRIPOS>BOND
     1    19    17    1
     2    18    17    1
     3    11     8    1
     4    20    17    1
     5    17    16    1
     6     9     8    1
     7     8    10    1
     8     8     3    1
     9     6     4    1
    10     2     1    1
    11     5     4    1
    12    16     1    1
    13    16    21    1
    14    16    25    1
    15     4     3    1
    16     4     7    1
    17    24    21    1
    18    23    21    1
    19    27    25    1
    20     3     1    1
    21     3    12    1
    22    26    25    1
    23     1    29    1
    24    21    22    1
    25    25    28    1
    26    15    12    1
    27    12    14    1
    28    12    13    1
    29    31    30    1
    30    41    38    1
    31    32    30    1
    32    30    29    1
    33    30    33    1
    34    29    38    1
    35    29    34    1
    36    38    40    1
    37    38    39    1
    38    36    34    1
    39    34    37    1
    40    34    35    1
