@<TRIPOS>MOLECULE
2
 41 40 0 0 0
SMALL
GASTEIGER

@<TRIPOS>ATOM
      1 SI          5.4640    3.1427    9.3346 Si      1  UNL1        0.0000
      2 O           6.9174    3.8212    9.0202 O.3     1  UNL1        0.0000
      3 C           5.2518    1.4631    8.3399 C.3     1  UNL1        0.0000
      4 C           4.1371    4.4532    8.7338 C.3     1  UNL1        0.0000
      5 C           5.4311    2.8812   11.2853 C.3     1  UNL1        0.0000
      6 C           6.5283    0.6273    8.4121 C.3     1  UNL1        0.0000
      7 H           6.4414   -0.2481    7.7665 H       1  UNL1        0.0000
      8 H           6.7260    0.2781    9.4186 H       1  UNL1        0.0000
      9 H           7.3685    1.2240    8.0750 H       1  UNL1        0.0000
     10 C           5.0221    1.7432    6.8529 C.3     1  UNL1        0.0000
     11 H           5.0687    0.8107    6.2883 H       1  UNL1        0.0000
     12 H           5.7935    2.4092    6.4798 H       1  UNL1        0.0000
     13 H           4.0469    2.1839    6.6715 H       1  UNL1        0.0000
     14 C           4.0889    0.6109    8.8516 C.3     1  UNL1        0.0000
     15 H           3.9623   -0.2631    8.2116 H       1  UNL1        0.0000
     16 H           3.1559    1.1658    8.8525 H       1  UNL1        0.0000
     17 H           4.2770    0.2551    9.8606 H       1  UNL1        0.0000
     18 C           4.5658    5.0034    7.3686 C.3     1  UNL1        0.0000
     19 H           4.0152    5.9158    7.1367 H       1  UNL1        0.0000
     20 H           4.3643    4.2910    6.5764 H       1  UNL1        0.0000
     21 H           5.6364    5.2221    7.3714 H       1  UNL1        0.0000
     22 C           4.1189    5.6290    9.7105 C.3     1  UNL1        0.0000
     23 H           3.5195    6.4466    9.3089 H       1  UNL1        0.0000
     24 H           5.1334    5.9854    9.8705 H       1  UNL1        0.0000
     25 H           3.6840    5.3435   10.6637 H       1  UNL1        0.0000
     26 C           2.7041    3.9279    8.6239 C.3     1  UNL1        0.0000
     27 H           2.0343    4.7423    8.3451 H       1  UNL1        0.0000
     28 H           2.3613    3.5197    9.5707 H       1  UNL1        0.0000
     29 H           2.6148    3.1546    7.8671 H       1  UNL1        0.0000
     30 C           6.0282    4.1029   11.9946 C.3     1  UNL1        0.0000
     31 H           6.2678    3.8546   13.0289 H       1  UNL1        0.0000
     32 H           5.3306    4.9333   12.0102 H       1  UNL1        0.0000
     33 H           6.9420    4.4226   11.4900 H       1  UNL1        0.0000
     34 C           6.2987    1.6833   11.6782 C.3     1  UNL1        0.0000
     35 H           6.3573    1.6036   12.7645 H       1  UNL1        0.0000
     36 H           7.3064    1.8060   11.2920 H       1  UNL1        0.0000
     37 H           5.8852    0.7514   11.3045 H       1  UNL1        0.0000
     38 C           4.0257    2.6369   11.8396 C.3     1  UNL1        0.0000
     39 H           4.0768    2.4755   12.9169 H       1  UNL1        0.0000
     40 H           3.5695    1.7604   11.3896 H       1  UNL1        0.0000
     41 H           3.3734    3.4869   11.6631 H       1  UNL1        0.0000
@<TRIPOS>BOND
     1    11    10    1
     2    12    10    1
     3    20    18    1
     4    13    10    1
     5    10     3    1
     6    19    18    1
     7    18    21    1
     8    18     4    1
     9     7     6    1
    10    29    26    1
    11     9     6    1
    12    15    14    1
    13     3     6    1
    14     3    14    1
    15     3     1    1
    16    27    26    1
    17     6     8    1
    18    26     4    1
    19    26    28    1
    20     4     1    1
    21     4    22    1
    22    14    16    1
    23    14    17    1
    24     2     1    1
    25    23    22    1
    26     1     5    1
    27    22    24    1
    28    22    25    1
    29     5    34    1
    30     5    38    1
    31     5    30    1
    32    36    34    1
    33    37    34    1
    34    40    38    1
    35    33    30    1
    36    41    38    1
    37    34    35    1
    38    38    39    1
    39    30    32    1
    40    30    31    1
