@<TRIPOS>MOLECULE
2
 41 40 0 0 0
SMALL
GASTEIGER

@<TRIPOS>ATOM
      1 SI          8.2522   12.4356    0.7183 Si      1  UNL1        0.0000
      2 O           7.4108   12.7030    2.0421 O.3     1  UNL1        0.0000
      3 C           7.0638   11.5186   -0.5482 C.3     1  UNL1        0.0000
      4 C           6.0615   12.5267   -1.1066 C.3     1  UNL1        0.0000
      5 H           5.3333   12.0173   -1.7412 H       1  UNL1        0.0000
      6 H           6.5388   13.2833   -1.7193 H       1  UNL1        0.0000
      7 H           5.5442   13.0099   -0.2796 H       1  UNL1        0.0000
      8 C           6.2305   10.5019    0.2350 C.3     1  UNL1        0.0000
      9 H           5.7926   11.0100    1.0934 H       1  UNL1        0.0000
     10 H           6.8306    9.6688    0.5856 H       1  UNL1        0.0000
     11 H           5.4273   10.1002   -0.3853 H       1  UNL1        0.0000
     12 C           7.7289   10.8144   -1.7299 C.3     1  UNL1        0.0000
     13 H           8.3496    9.9850   -1.4029 H       1  UNL1        0.0000
     14 H           8.3447   11.5033   -2.3012 H       1  UNL1        0.0000
     15 H           6.9671   10.4092   -2.3989 H       1  UNL1        0.0000
     16 C           8.8341   14.1713   -0.0056 C.3     1  UNL1        0.0000
     17 C           7.7001   15.1733    0.2512 C.3     1  UNL1        0.0000
     18 H           8.0669   16.2004    0.1965 H       1  UNL1        0.0000
     19 H           7.2523   15.0117    1.2494 H       1  UNL1        0.0000
     20 H           6.9165   15.0636   -0.4930 H       1  UNL1        0.0000
     21 C           9.1896   14.1993   -1.4951 C.3     1  UNL1        0.0000
     22 H           8.3465   13.9377   -2.1265 H       1  UNL1        0.0000
     23 H           9.9991   13.5069   -1.7101 H       1  UNL1        0.0000
     24 H           9.5179   15.2005   -1.7800 H       1  UNL1        0.0000
     25 C          10.0695   14.6745    0.7419 C.3     1  UNL1        0.0000
     26 H          10.2675   15.7192    0.4933 H       1  UNL1        0.0000
     27 H          10.9519   14.1047    0.4653 H       1  UNL1        0.0000
     28 H           9.9223   14.5935    1.8110 H       1  UNL1        0.0000
     29 C           9.7933   11.2782    1.1447 C.3     1  UNL1        0.0000
     30 C           9.3307    9.8501    1.4468 C.3     1  UNL1        0.0000
     31 H          10.1651    9.2553    1.8236 H       1  UNL1        0.0000
     32 H           8.9621    9.3615    0.5504 H       1  UNL1        0.0000
     33 H           8.5439    9.8447    2.1949 H       1  UNL1        0.0000
     34 C          10.7863   11.1983   -0.0162 C.3     1  UNL1        0.0000
     35 H          11.2451   12.1626   -0.2096 H       1  UNL1        0.0000
     36 H          10.3080   10.8614   -0.9291 H       1  UNL1        0.0000
     37 H          11.5852   10.4950    0.2258 H       1  UNL1        0.0000
     38 C          10.5682   11.7583    2.3742 C.3     1  UNL1        0.0000
     39 H          11.3429   11.0334    2.6320 H       1  UNL1        0.0000
     40 H           9.9148   11.8738    3.2311 H       1  UNL1        0.0000
     41 H          11.0558   12.7073    2.1883 H       1  UNL1        0.0000
@<TRIPOS>BOND
     1    15    12    1
     2    14    12    1
     3    22    21    1
     4    24    21    1
     5     5     4    1
     6    12    13    1
     7    12     3    1
     8     6     4    1
     9    23    21    1
    10    21    16    1
    11     4     3    1
    12     4     7    1
    13    36    34    1
    14     3     8    1
    15     3     1    1
    16    20    17    1
    17    11     8    1
    18    35    34    1
    19    34    37    1
    20    34    29    1
    21    16    17    1
    22    16     1    1
    23    16    25    1
    24    18    17    1
    25     8    10    1
    26     8     9    1
    27    17    19    1
    28    27    25    1
    29    26    25    1
    30    32    30    1
    31     1    29    1
    32     1     2    1
    33    25    28    1
    34    29    30    1
    35    29    38    1
    36    30    31    1
    37    30    33    1
    38    41    38    1
    39    38    39    1
    40    38    40    1
