@<TRIPOS>MOLECULE
1
 41 40 0 0 0
SMALL
GASTEIGER

@<TRIPOS>ATOM
      1 O           9.8199    4.0815    9.0210 O.3     1  UNL1        0.0000
      2 SI         11.1338    3.1614    9.3356 Si      1  UNL1        0.0000
      3 C          12.6957    3.8192    8.3439 C.3     1  UNL1        0.0000
      4 C          12.7819    5.3423    8.4196 C.3     1  UNL1        0.0000
      5 H          13.5844    5.7059    7.7757 H       1  UNL1        0.0000
      6 H          12.9846    5.6859    9.4271 H       1  UNL1        0.0000
      7 H          11.8457    5.7728    8.0825 H       1  UNL1        0.0000
      8 C          12.5687    3.4838    6.8559 C.3     1  UNL1        0.0000
      9 H          13.3536    3.9914    6.2932 H       1  UNL1        0.0000
     10 H          11.6067    3.8203    6.4831 H       1  UNL1        0.0000
     11 H          12.6741    2.4193    6.6721 H       1  UNL1        0.0000
     12 C          14.0145    3.2365    8.8554 C.3     1  UNL1        0.0000
     13 H          14.8353    3.5648    8.2167 H       1  UNL1        0.0000
     14 H          14.0000    2.1511    8.8543 H       1  UNL1        0.0000
     15 H          14.2278    3.5753    9.8652 H       1  UNL1        0.0000
     16 C          10.6628    1.3581    8.7315 C.3     1  UNL1        0.0000
     17 C           9.9722    1.4571    7.3665 C.3     1  UNL1        0.0000
     18 H           9.4579    0.5243    7.1322 H       1  UNL1        0.0000
     19 H          10.6900    1.6412    6.5749 H       1  UNL1        0.0000
     20 H           9.2469    2.2744    7.3711 H       1  UNL1        0.0000
     21 C           9.6534    0.7520    9.7066 C.3     1  UNL1        0.0000
     22 H           9.2459   -0.1753    9.3030 H       1  UNL1        0.0000
     23 H           8.8369    1.4516    9.8672 H       1  UNL1        0.0000
     24 H          10.1177    0.5168   10.6597 H       1  UNL1        0.0000
     25 C          11.8344    0.3803    8.6198 C.3     1  UNL1        0.0000
     26 H          11.4644   -0.6063    8.3383 H       1  UNL1        0.0000
     27 H          12.3590    0.2853    9.5665 H       1  UNL1        0.0000
     28 H          12.5490    0.6917    7.8640 H       1  UNL1        0.0000
     29 C          11.3743    3.2611   11.2868 C.3     1  UNL1        0.0000
     30 C          10.0170    3.1655   11.9944 C.3     1  UNL1        0.0000
     31 H          10.1109    3.4952   13.0294 H       1  UNL1        0.0000
     32 H           9.6470    2.1461   12.0076 H       1  UNL1        0.0000
     33 H           9.2837    3.7979   11.4901 H       1  UNL1        0.0000
     34 C          11.9766    4.6112   11.6824 C.3     1  UNL1        0.0000
     35 H          12.0141    4.7006   12.7690 H       1  UNL1        0.0000
     36 H          11.3669    5.4227   11.2959 H       1  UNL1        0.0000
     37 H          12.9911    4.7198   11.3110 H       1  UNL1        0.0000
     38 C          12.2885    2.1658   11.8406 C.3     1  UNL1        0.0000
     39 H          12.4002    2.2882   12.9185 H       1  UNL1        0.0000
     40 H          13.2767    2.2111   11.3930 H       1  UNL1        0.0000
     41 H          11.8801    1.1759   11.6607 H       1  UNL1        0.0000
@<TRIPOS>BOND
     1     9     8    1
     2    10     8    1
     3    19    17    1
     4    11     8    1
     5     8     3    1
     6    18    17    1
     7    17    20    1
     8    17    16    1
     9     5     4    1
    10    28    25    1
    11     7     4    1
    12    13    12    1
    13    26    25    1
    14     3     4    1
    15     3    12    1
    16     3     2    1
    17     4     6    1
    18    25    16    1
    19    25    27    1
    20    16     2    1
    21    16    21    1
    22    14    12    1
    23    12    15    1
    24     1     2    1
    25    22    21    1
    26     2    29    1
    27    21    23    1
    28    21    24    1
    29    29    34    1
    30    29    38    1
    31    29    30    1
    32    36    34    1
    33    37    34    1
    34    40    38    1
    35    33    30    1
    36    41    38    1
    37    34    35    1
    38    38    39    1
    39    30    32    1
    40    30    31    1
