@<TRIPOS>MOLECULE
2
 41 40 0 0 0
SMALL
GASTEIGER

@<TRIPOS>ATOM
      1 SI          2.8424   13.7765    1.6207 Si      1  UNL1        0.0000
      2 O           4.4245   13.5942    1.9405 O.3     1  UNL1        0.0000
      3 C           2.0293   14.1704    3.3671 C.3     1  UNL1        0.0000
      4 C           1.9521   12.9172    4.2425 C.3     1  UNL1        0.0000
      5 H           2.9317   12.4499    4.3042 H       1  UNL1        0.0000
      6 H           1.2323   12.2003    3.8592 H       1  UNL1        0.0000
      7 H           1.6355   13.1887    5.2514 H       1  UNL1        0.0000
      8 C           2.9465   15.1495    4.0991 C.3     1  UNL1        0.0000
      9 H           2.6830   15.1930    5.1564 H       1  UNL1        0.0000
     10 H           2.8445   16.1471    3.6870 H       1  UNL1        0.0000
     11 H           3.9915   14.8231    4.0074 H       1  UNL1        0.0000
     12 C           0.6305   14.7882    3.2955 C.3     1  UNL1        0.0000
     13 H           0.2538   14.9684    4.3033 H       1  UNL1        0.0000
     14 H          -0.0706   14.1331    2.7876 H       1  UNL1        0.0000
     15 H           0.6441   15.7402    2.7731 H       1  UNL1        0.0000
     16 C           2.7001   15.3076    0.3960 C.3     1  UNL1        0.0000
     17 C           3.0359   16.6145    1.1204 C.3     1  UNL1        0.0000
     18 H           3.1413   17.4239    0.3963 H       1  UNL1        0.0000
     19 H           3.9788   16.5139    1.6580 H       1  UNL1        0.0000
     20 H           2.2520   16.9004    1.8154 H       1  UNL1        0.0000
     21 C           1.3151   15.4552   -0.2355 C.3     1  UNL1        0.0000
     22 H           0.5402   15.5340    0.5212 H       1  UNL1        0.0000
     23 H           1.0814   14.6092   -0.8749 H       1  UNL1        0.0000
     24 H           1.2804   16.3550   -0.8508 H       1  UNL1        0.0000
     25 C           3.7372   15.1777   -0.7213 C.3     1  UNL1        0.0000
     26 H           3.6831   16.0409   -1.3864 H       1  UNL1        0.0000
     27 H           3.5876   14.2852   -1.3177 H       1  UNL1        0.0000
     28 H           4.7331   15.1431   -0.2839 H       1  UNL1        0.0000
     29 C           2.0846   12.1269    0.8746 C.3     1  UNL1        0.0000
     30 C           0.5587   12.0750    0.9766 C.3     1  UNL1        0.0000
     31 H           0.1892   11.1605    0.5108 H       1  UNL1        0.0000
     32 H           0.1034   12.9191    0.4670 H       1  UNL1        0.0000
     33 H           0.2238   12.0762    2.0090 H       1  UNL1        0.0000
     34 C           2.4397   11.9527   -0.6023 C.3     1  UNL1        0.0000
     35 H           3.5143   11.9536   -0.7327 H       1  UNL1        0.0000
     36 H           2.0065   12.7382   -1.2140 H       1  UNL1        0.0000
     37 H           2.0520   11.0001   -0.9681 H       1  UNL1        0.0000
     38 C           2.6718   10.9210    1.6139 C.3     1  UNL1        0.0000
     39 H           2.2572   10.8283    2.6118 H       1  UNL1        0.0000
     40 H           3.7483   11.0325    1.6974 H       1  UNL1        0.0000
     41 H           2.4551    9.9992    1.0727 H       1  UNL1        0.0000
@<TRIPOS>BOND
     1    26    25    1
     2    27    25    1
     3    36    34    1
     4    37    34    1
     5    23    21    1
     6    24    21    1
     7    35    34    1
     8    25    28    1
     9    25    16    1
    10    34    29    1
    11    21    16    1
    12    21    22    1
    13    16    17    1
    14    16     1    1
    15    18    17    1
    16    32    30    1
    17    31    30    1
    18    29    30    1
    19    29    38    1
    20    29     1    1
    21    30    33    1
    22    41    38    1
    23    17    19    1
    24    17    20    1
    25    38    40    1
    26    38    39    1
    27     1     2    1
    28     1     3    1
    29    15    12    1
    30    14    12    1
    31    12     3    1
    32    12    13    1
    33     3     8    1
    34     3     4    1
    35    10     8    1
    36     6     4    1
    37    11     8    1
    38     8     9    1
    39     4     5    1
    40     4     7    1
