@<TRIPOS>MOLECULE
2
 41 40 0 0 0
SMALL
GASTEIGER

@<TRIPOS>ATOM
      1 SI          1.2370    2.3382    3.1530 Si      1  UNL1        0.0000
      2 O           1.4582    3.5162    2.0616 O.3     1  UNL1        0.0000
      3 C           2.3646    2.9308    4.6427 C.3     1  UNL1        0.0000
      4 C           2.0653    2.2504    5.9799 C.3     1  UNL1        0.0000
      5 H           2.7262    2.6370    6.7554 H       1  UNL1        0.0000
      6 H           2.2125    1.1775    5.9125 H       1  UNL1        0.0000
      7 H           1.0397    2.4313    6.2890 H       1  UNL1        0.0000
      8 C           2.1758    4.4442    4.8147 C.3     1  UNL1        0.0000
      9 H           3.0003    4.8428    5.4052 H       1  UNL1        0.0000
     10 H           1.2489    4.6828    5.3267 H       1  UNL1        0.0000
     11 H           2.1714    4.9509    3.8259 H       1  UNL1        0.0000
     12 C           3.8474    2.7294    4.3021 C.3     1  UNL1        0.0000
     13 H           4.4740    3.1858    5.0695 H       1  UNL1        0.0000
     14 H           4.0869    3.1948    3.3472 H       1  UNL1        0.0000
     15 H           4.1084    1.6774    4.2528 H       1  UNL1        0.0000
     16 C          -0.6830    2.4429    3.5155 C.3     1  UNL1        0.0000
     17 C          -1.4039    2.5432    2.1643 C.3     1  UNL1        0.0000
     18 H          -2.4661    2.7315    2.3185 H       1  UNL1        0.0000
     19 H          -1.3038    1.6404    1.5730 H       1  UNL1        0.0000
     20 H          -0.9800    3.3914    1.6108 H       1  UNL1        0.0000
     21 C          -1.2554    1.2888    4.3379 C.3     1  UNL1        0.0000
     22 H          -2.3203    1.4410    4.5103 H       1  UNL1        0.0000
     23 H          -0.7603    1.2201    5.3025 H       1  UNL1        0.0000
     24 H          -1.1307    0.3388    3.8280 H       1  UNL1        0.0000
     25 C          -0.9984    3.7620    4.2308 C.3     1  UNL1        0.0000
     26 H          -2.0779    3.9009    4.2919 H       1  UNL1        0.0000
     27 H          -0.5821    4.5926    3.6485 H       1  UNL1        0.0000
     28 H          -0.6071    3.7793    5.2436 H       1  UNL1        0.0000
     29 C           1.8225    0.6230    2.4204 C.3     1  UNL1        0.0000
     30 C           3.0755    0.8267    1.5563 C.3     1  UNL1        0.0000
     31 H           3.2812   -0.0685    0.9694 H       1  UNL1        0.0000
     32 H           3.9486    1.0320    2.1655 H       1  UNL1        0.0000
     33 H           2.9465    1.6648    0.8754 H       1  UNL1        0.0000
     34 C           0.7538   -0.0319    1.5367 C.3     1  UNL1        0.0000
     35 H           1.1559   -0.9405    1.0869 H       1  UNL1        0.0000
     36 H           0.4404    0.6304    0.7387 H       1  UNL1        0.0000
     37 H          -0.1174   -0.3136    2.1204 H       1  UNL1        0.0000
     38 C           2.1355   -0.3835    3.5305 C.3     1  UNL1        0.0000
     39 H           2.4043   -1.3454    3.0948 H       1  UNL1        0.0000
     40 H           1.2695   -0.5296    4.1701 H       1  UNL1        0.0000
     41 H           2.9647   -0.0568    4.1480 H       1  UNL1        0.0000
@<TRIPOS>BOND
     1    36    34    1
     2    33    30    1
     3    31    30    1
     4    35    34    1
     5    34    37    1
     6    34    29    1
     7    30    32    1
     8    30    29    1
     9    19    17    1
    10    20    17    1
    11     2     1    1
    12    17    18    1
    13    17    16    1
    14    29     1    1
    15    29    38    1
    16    39    38    1
    17     1    16    1
    18     1     3    1
    19    14    12    1
    20    16    25    1
    21    16    21    1
    22    38    41    1
    23    38    40    1
    24    27    25    1
    25    11     8    1
    26    24    21    1
    27    25    26    1
    28    25    28    1
    29    15    12    1
    30    12     3    1
    31    12    13    1
    32    21    22    1
    33    21    23    1
    34     3     8    1
    35     3     4    1
    36     8    10    1
    37     8     9    1
    38     6     4    1
    39     4     7    1
    40     4     5    1
