@<TRIPOS>MOLECULE
2
 41 40 0 0 0
SMALL
GASTEIGER

@<TRIPOS>ATOM
      1 SI          1.0568    5.2159   -2.0744 Si      1  UNL1        0.0000
      2 O           1.4908    5.4676   -0.5329 O.3     1  UNL1        0.0000
      3 C          -0.8241    5.7561   -2.0805 C.3     1  UNL1        0.0000
      4 C          -1.4694    5.8640   -3.4619 C.3     1  UNL1        0.0000
      5 H          -2.5198    6.1371   -3.3664 H       1  UNL1        0.0000
      6 H          -1.4102    4.9167   -3.9904 H       1  UNL1        0.0000
      7 H          -0.9808    6.6190   -4.0695 H       1  UNL1        0.0000
      8 C          -1.6393    4.7744   -1.2304 C.3     1  UNL1        0.0000
      9 H          -2.6517    5.1547   -1.0939 H       1  UNL1        0.0000
     10 H          -1.1735    4.6879   -0.2414 H       1  UNL1        0.0000
     11 H          -1.7152    3.7971   -1.6974 H       1  UNL1        0.0000
     12 C          -0.9229    7.0971   -1.3404 C.3     1  UNL1        0.0000
     13 H          -1.9678    7.3765   -1.2075 H       1  UNL1        0.0000
     14 H          -0.4238    7.9005   -1.8696 H       1  UNL1        0.0000
     15 H          -0.4692    6.9768   -0.3476 H       1  UNL1        0.0000
     16 C           1.3351    3.2863   -2.2806 C.3     1  UNL1        0.0000
     17 C           0.8255    2.5894   -1.0114 C.3     1  UNL1        0.0000
     18 H           1.2454    1.5852   -0.9608 H       1  UNL1        0.0000
     19 H          -0.2566    2.5029   -1.0024 H       1  UNL1        0.0000
     20 H           1.1408    3.1500   -0.1057 H       1  UNL1        0.0000
     21 C           0.6313    2.6659   -3.4893 C.3     1  UNL1        0.0000
     22 H           0.8267    1.5945   -3.5297 H       1  UNL1        0.0000
     23 H           0.9827    3.1100   -4.4148 H       1  UNL1        0.0000
     24 H          -0.4437    2.8113   -3.4323 H       1  UNL1        0.0000
     25 C           2.8342    2.9682   -2.3611 C.3     1  UNL1        0.0000
     26 H           2.9904    1.8889   -2.3363 H       1  UNL1        0.0000
     27 H           3.3642    3.4070   -1.5173 H       1  UNL1        0.0000
     28 H           3.2738    3.3389   -3.2812 H       1  UNL1        0.0000
     29 C           2.1907    6.2576   -3.2785 C.3     1  UNL1        0.0000
     30 C           2.1801    5.6802   -4.6961 C.3     1  UNL1        0.0000
     31 H           2.7699    6.3122   -5.3594 H       1  UNL1        0.0000
     32 H           1.1659    5.6337   -5.0832 H       1  UNL1        0.0000
     33 H           2.6033    4.6824   -4.7272 H       1  UNL1        0.0000
     34 C           3.6331    6.2761   -2.7524 C.3     1  UNL1        0.0000
     35 H           4.2213    7.0233   -3.2852 H       1  UNL1        0.0000
     36 H           4.1170    5.3152   -2.8869 H       1  UNL1        0.0000
     37 H           3.6567    6.5092   -1.6905 H       1  UNL1        0.0000
     38 C           1.7267    7.7139   -3.4049 C.3     1  UNL1        0.0000
     39 H           2.4350    8.2729   -4.0177 H       1  UNL1        0.0000
     40 H           1.6647    8.1946   -2.4359 H       1  UNL1        0.0000
     41 H           0.7565    7.7744   -3.8887 H       1  UNL1        0.0000
@<TRIPOS>BOND
     1    31    30    1
     2    32    30    1
     3    33    30    1
     4    30    29    1
     5    23    21    1
     6     7     4    1
     7    39    38    1
     8     6     4    1
     9    41    38    1
    10    22    21    1
    11    21    24    1
    12    21    16    1
    13     4     5    1
    14     4     3    1
    15    38    29    1
    16    38    40    1
    17    35    34    1
    18    28    25    1
    19    29    34    1
    20    29     1    1
    21    36    34    1
    22    34    37    1
    23    25    26    1
    24    25    16    1
    25    25    27    1
    26    16     1    1
    27    16    17    1
    28     3     1    1
    29     3    12    1
    30     3     8    1
    31     1     2    1
    32    14    12    1
    33    11     8    1
    34    12    13    1
    35    12    15    1
    36     8     9    1
    37     8    10    1
    38    17    19    1
    39    17    18    1
    40    17    20    1
