@<TRIPOS>MOLECULE
2
 41 40 0 0 0
SMALL
GASTEIGER

@<TRIPOS>ATOM
      1 SI          2.5783    8.1486    2.8967 Si      1  UNL1        0.0000
      2 O           2.2559    6.6423    2.3916 O.3     1  UNL1        0.0000
      3 C           0.8168    8.8035    3.4421 C.3     1  UNL1        0.0000
      4 C          -0.0812    8.9420    2.2071 C.3     1  UNL1        0.0000
      5 H          -1.1061    9.1484    2.5157 H       1  UNL1        0.0000
      6 H          -0.0775    7.9942    1.6556 H       1  UNL1        0.0000
      7 H           0.2377    9.7545    1.5612 H       1  UNL1        0.0000
      8 C           0.1568    7.7081    4.2908 C.3     1  UNL1        0.0000
      9 H          -0.8754    7.9771    4.5135 H       1  UNL1        0.0000
     10 H           0.6725    7.5441    5.2298 H       1  UNL1        0.0000
     11 H           0.1525    6.7767    3.7090 H       1  UNL1        0.0000
     12 C           0.8196   10.1314    4.1991 C.3     1  UNL1        0.0000
     13 H          -0.2006   10.4324    4.4349 H       1  UNL1        0.0000
     14 H           1.2767   10.9151    3.6015 H       1  UNL1        0.0000
     15 H           1.3704   10.0551    5.1311 H       1  UNL1        0.0000
     16 C           3.8995    8.1082    4.3370 C.3     1  UNL1        0.0000
     17 C           3.2675    7.8180    5.7039 C.3     1  UNL1        0.0000
     18 H           4.0504    7.7206    6.4570 H       1  UNL1        0.0000
     19 H           2.6966    6.8975    5.6886 H       1  UNL1        0.0000
     20 H           2.6151    8.6291    6.0130 H       1  UNL1        0.0000
     21 C           4.6200    9.4515    4.4765 C.3     1  UNL1        0.0000
     22 H           5.1969    9.6931    3.5909 H       1  UNL1        0.0000
     23 H           5.3070    9.4184    5.3216 H       1  UNL1        0.0000
     24 H           3.9065   10.2526    4.6492 H       1  UNL1        0.0000
     25 C           4.9335    7.0068    4.0621 C.3     1  UNL1        0.0000
     26 H           5.5999    7.2815    3.2520 H       1  UNL1        0.0000
     27 H           4.4450    6.0761    3.7832 H       1  UNL1        0.0000
     28 H           5.5419    6.8275    4.9486 H       1  UNL1        0.0000
     29 C           3.2782    8.9939    1.2724 C.3     1  UNL1        0.0000
     30 C           3.2982   10.5234    1.3074 C.3     1  UNL1        0.0000
     31 H           3.6923   10.9165    0.3705 H       1  UNL1        0.0000
     32 H           3.9228   10.8860    2.1170 H       1  UNL1        0.0000
     33 H           2.2982   10.9238    1.4476 H       1  UNL1        0.0000
     34 C           4.6947    8.4845    0.9737 C.3     1  UNL1        0.0000
     35 H           5.0275    8.8498    0.0013 H       1  UNL1        0.0000
     36 H           4.7128    7.3959    0.9514 H       1  UNL1        0.0000
     37 H           5.4097    8.8305    1.7127 H       1  UNL1        0.0000
     38 C           2.4129    8.5461    0.0861 C.3     1  UNL1        0.0000
     39 H           2.9509    8.7363   -0.8422 H       1  UNL1        0.0000
     40 H           1.4706    9.0835    0.0450 H       1  UNL1        0.0000
     41 H           2.1946    7.4588    0.1519 H       1  UNL1        0.0000
@<TRIPOS>BOND
     1    39    38    1
     2    35    34    1
     3    40    38    1
     4    38    41    1
     5    38    29    1
     6    31    30    1
     7    36    34    1
     8    34    29    1
     9    34    37    1
    10    29    30    1
    11    29     1    1
    12    30    33    1
    13    30    32    1
    14     7     4    1
    15     6     4    1
    16     4     5    1
    17     4     3    1
    18     2     1    1
    19     1     3    1
    20     1    16    1
    21    26    25    1
    22     3    12    1
    23     3     8    1
    24    22    21    1
    25    14    12    1
    26    11     8    1
    27    27    25    1
    28    25    16    1
    29    25    28    1
    30    12    13    1
    31    12    15    1
    32     8     9    1
    33     8    10    1
    34    16    21    1
    35    16    17    1
    36    21    24    1
    37    21    23    1
    38    19    17    1
    39    17    20    1
    40    17    18    1
