@<TRIPOS>MOLECULE
1
 18 18 0 0 0
SMALL
GASTEIGER

@<TRIPOS>ATOM
      1 O           1.2782    6.3937    9.6987 O.3     1  UNL1       -0.2873
      2 C           1.4163    6.6918   10.9764 C.ar    1  UNL1        0.1847
      3 C           0.4833    6.2582   11.9408 C.ar    1  UNL1       -0.0035
      4 C           0.6608    6.6169   13.2664 C.ar    1  UNL1       -0.0552
      5 C           1.7308    7.4008   13.6616 C.ar    1  UNL1       -0.0610
      6 C           2.6502    7.8274   12.7181 C.ar    1  UNL1       -0.0552
      7 C           2.5091    7.4855   11.3857 C.ar    1  UNL1       -0.0035
      8 C          -0.6707    5.4011   11.5055 C.3     1  UNL1       -0.0361
      9 C           3.5039    7.9154   10.3450 C.3     1  UNL1       -0.0361
     10 H          -0.0539    6.2756   14.0033 H       1  UNL1        0.0621
     11 H           1.8520    7.6732   14.6997 H       1  UNL1        0.0618
     12 H           3.4940    8.4320   13.0230 H       1  UNL1        0.0621
     13 H          -1.0076    4.7706   12.3263 H       1  UNL1        0.0279
     14 H          -0.3562    4.7806   10.6519 H       1  UNL1        0.0279
     15 H          -1.5137    6.0210   11.1897 H       1  UNL1        0.0279
     16 H           4.4426    8.2165   10.8059 H       1  UNL1        0.0279
     17 H           3.6874    7.0867    9.6540 H       1  UNL1        0.0279
     18 H           3.1184    8.7602    9.7686 H       1  UNL1        0.0279
@<TRIPOS>BOND
     1    17     9    1
     2     1     2    1
     3    18     9    1
     4     9    16    1
     5     9     7    1
     6    14     8    1
     7     2     7   ar
     8     2     3   ar
     9    15     8    1
    10     7     6   ar
    11     8     3    1
    12     8    13    1
    13     3     4   ar
    14     6    12    1
    15     6     5   ar
    16     4     5   ar
    17     4    10    1
    18     5    11    1
