@<TRIPOS>MOLECULE
1
 13 13 0 0 0
SMALL
GASTEIGER

@<TRIPOS>ATOM
      1 O          10.3504    2.8741   20.5409 O.3     1  UNL1       -0.3798
      2 C          10.4622    2.2265   19.2797 C.3     1  UNL1        0.0477
      3 H           9.5364    1.6782   19.0996 H       1  UNL1        0.0560
      4 H          10.6007    2.9806   18.4917 H       1  UNL1        0.0560
      5 C          11.7082    1.3381   19.3914 C.3     1  UNL1       -0.0274
      6 H          12.2047    1.2253   18.4305 H       1  UNL1        0.0288
      7 H          11.4393    0.3464   19.7548 H       1  UNL1        0.0288
      8 C          12.5779    2.0810   20.4215 C.3     1  UNL1       -0.0274
      9 H          12.8339    1.4345   21.2598 H       1  UNL1        0.0288
     10 H          13.5035    2.4496   19.9843 H       1  UNL1        0.0288
     11 C          11.6830    3.2474   20.8764 C.3     1  UNL1        0.0477
     12 H          11.9504    4.1639   20.3325 H       1  UNL1        0.0560
     13 H          11.7165    3.4392   21.9500 H       1  UNL1        0.0560
@<TRIPOS>BOND
     1     6     5    1
     2     4     2    1
     3     3     2    1
     4     2     5    1
     5     2     1    1
     6     5     7    1
     7     5     8    1
     8    10     8    1
     9    12    11    1
    10     8    11    1
    11     8     9    1
    12     1    11    1
    13    11    13    1
