@<TRIPOS>MOLECULE
1
 13 13 0 0 0
SMALL
GASTEIGER

@<TRIPOS>ATOM
      1 O          -1.3259   -2.5993    1.6714 O.3     1  UNL1       -0.3798
      2 C          -1.4012   -4.0034    1.4214 C.3     1  UNL1        0.0477
      3 H          -2.0248   -4.4467    2.1983 H       1  UNL1        0.0560
      4 H          -0.3942   -4.4413    1.4907 H       1  UNL1        0.0560
      5 C          -1.9630   -4.1731   -0.0022 C.3     1  UNL1       -0.0274
      6 H          -2.9774   -4.5642    0.0155 H       1  UNL1        0.0288
      7 H          -1.3426   -4.8575   -0.5791 H       1  UNL1        0.0288
      8 C          -1.9269   -2.7511   -0.5815 C.3     1  UNL1       -0.0274
      9 H          -1.5334   -2.7189   -1.5949 H       1  UNL1        0.0288
     10 H          -2.9228   -2.3111   -0.5697 H       1  UNL1        0.0288
     11 C          -1.0313   -2.0096    0.4089 C.3     1  UNL1        0.0477
     12 H           0.0305   -2.1721    0.1644 H       1  UNL1        0.0560
     13 H          -1.2321   -0.9408    0.4837 H       1  UNL1        0.0560
@<TRIPOS>BOND
     1     9     8    1
     2     8    10    1
     3     8     5    1
     4     8    11    1
     5     7     5    1
     6     5     6    1
     7     5     2    1
     8    12    11    1
     9    11    13    1
    10    11     1    1
    11     2     4    1
    12     2     1    1
    13     2     3    1
