@<TRIPOS>MOLECULE
16
 35 37 0 0 0
SMALL
GASTEIGER

@<TRIPOS>ATOM
      1 F           6.6693   -3.3466   10.7287 F       1  UNL1        0.0000
      2 F           9.3214   -2.8962   10.6804 F       1  UNL1        0.0000
      3 F          10.3317   -0.7552    9.3227 F       1  UNL1        0.0000
      4 F           8.6202    0.9341    8.0074 F       1  UNL1        0.0000
      5 F           5.9725    0.4828    8.0300 F       1  UNL1        0.0000
      6 F           4.4342   -0.2360   11.8476 F       1  UNL1        0.0000
      7 F           3.5013   -1.1564   14.2137 F       1  UNL1        0.0000
      8 F           2.6587   -3.7524   14.4441 F       1  UNL1        0.0000
      9 F           2.7475   -5.3923   12.2667 F       1  UNL1        0.0000
     10 F           3.6536   -4.4735    9.9053 F       1  UNL1        0.0000
     11 F           1.9088   -1.4529    8.6101 F       1  UNL1        0.0000
     12 F           0.7443   -2.6073    6.4651 F       1  UNL1        0.0000
     13 F           2.1971   -4.2523    4.8236 F       1  UNL1        0.0000
     14 F           4.8433   -4.6679    5.3388 F       1  UNL1        0.0000
     15 F           6.0240   -3.4724    7.4450 F       1  UNL1        0.0000
     16 O           4.0244   -0.3421    9.3655 O.3     1  UNL1        0.0000
     17 C           6.2295   -1.4627    9.3779 C.ar    1  UNL1        0.0000
     18 C           7.1248   -2.2932   10.0417 C.ar    1  UNL1        0.0000
     19 C           8.4992   -2.0730   10.0287 C.ar    1  UNL1        0.0000
     20 C           9.0184   -0.9814    9.3394 C.ar    1  UNL1        0.0000
     21 C           8.1495   -0.1254    8.6715 C.ar    1  UNL1        0.0000
     22 C           6.7851   -0.3832    8.7052 C.ar    1  UNL1        0.0000
     23 C           4.0846   -2.3321   10.8044 C.ar    1  UNL1        0.0000
     24 C           4.0191   -1.5294   11.9350 C.ar    1  UNL1        0.0000
     25 C           3.5480   -1.9774   13.1622 C.ar    1  UNL1        0.0000
     26 C           3.1181   -3.2955   13.2791 C.ar    1  UNL1        0.0000
     27 C           3.1664   -4.1296   12.1666 C.ar    1  UNL1        0.0000
     28 C           3.6406   -3.6393   10.9529 C.ar    1  UNL1        0.0000
     29 C           4.0050   -2.4448    8.1038 C.ar    1  UNL1        0.0000
     30 C           2.6614   -2.2605    7.8073 C.ar    1  UNL1        0.0000
     31 C           2.0352   -2.8497    6.7176 C.ar    1  UNL1        0.0000
     32 C           2.7741   -3.6783    5.8792 C.ar    1  UNL1        0.0000
     33 C           4.1236   -3.8875    6.1457 C.ar    1  UNL1        0.0000
     34 C           4.7181   -3.2666    7.2420 C.ar    1  UNL1        0.0000
     35 B           4.6035   -1.6523    9.4051 B       1  UNL1        0.0000
@<TRIPOS>BOND
     1    13    32    1
     2    14    33    1
     3    32    33   ar
     4    32    31   ar
     5    33    34   ar
     6    12    31    1
     7    31    30   ar
     8    34    15    1
     9    34    29   ar
    10    30    29   ar
    11    30    11    1
    12     4    21    1
    13     5    22    1
    14    29    35    1
    15    21    22   ar
    16    21    20   ar
    17    22    17   ar
    18     3    20    1
    19    20    19   ar
    20    16    35    1
    21    17    35    1
    22    17    18   ar
    23    35    23    1
    24    10    28    1
    25    19    18   ar
    26    19     2    1
    27    18     1    1
    28    23    28   ar
    29    23    24   ar
    30    28    27   ar
    31     6    24    1
    32    24    25   ar
    33    27     9    1
    34    27    26   ar
    35    25    26   ar
    36    25     7    1
    37    26     8    1
