@<TRIPOS>MOLECULE
1
 13 13 0 0 0
SMALL
GASTEIGER

@<TRIPOS>ATOM
      1 O           2.0452    1.1236    5.1768 O.3     1  UNL1       -0.3798
      2 C           2.8928    1.0031    6.3304 C.3     1  UNL1        0.0477
      3 H           3.5447    0.1274    6.1966 H       1  UNL1        0.0560
      4 H           2.2473    0.8642    7.2038 H       1  UNL1        0.0560
      5 C           3.7123    2.2858    6.3716 C.3     1  UNL1       -0.0274
      6 H           3.1185    3.0922    6.8019 H       1  UNL1        0.0288
      7 H           4.6327    2.1723    6.9390 H       1  UNL1        0.0288
      8 C           3.9505    2.5299    4.8840 C.3     1  UNL1       -0.0274
      9 H           4.7641    1.8993    4.5235 H       1  UNL1        0.0288
     10 H           4.1805    3.5671    4.6531 H       1  UNL1        0.0288
     11 C           2.6198    2.0900    4.2744 C.3     1  UNL1        0.0477
     12 H           1.9221    2.9317    4.1910 H       1  UNL1        0.0560
     13 H           2.7391    1.6209    3.2912 H       1  UNL1        0.0560
@<TRIPOS>BOND
     1    13    11    1
     2    12    11    1
     3    11     8    1
     4    11     1    1
     5     9     8    1
     6    10     8    1
     7     8     5    1
     8     1     2    1
     9     3     2    1
    10     2     5    1
    11     2     4    1
    12     5     6    1
    13     5     7    1
