@<TRIPOS>MOLECULE
1
 13 13 0 0 0
SMALL
GASTEIGER

@<TRIPOS>ATOM
      1 O          11.4023    7.0972    5.3108 O.3     1  UNL1       -0.3798
      2 C          10.6316    8.1809    5.8321 C.3     1  UNL1        0.0477
      3 H           9.7230    7.7712    6.2755 H       1  UNL1        0.0560
      4 H          10.3445    8.8561    5.0145 H       1  UNL1        0.0560
      5 C          11.5449    8.8949    6.8209 C.3     1  UNL1       -0.0274
      6 H          11.2290    9.9163    7.0169 H       1  UNL1        0.0288
      7 H          11.5874    8.3446    7.7615 H       1  UNL1        0.0288
      8 C          12.8828    8.8053    6.0912 C.3     1  UNL1       -0.0274
      9 H          13.7385    8.8805    6.7578 H       1  UNL1        0.0288
     10 H          12.9532    9.5929    5.3401 H       1  UNL1        0.0288
     11 C          12.7955    7.4297    5.4243 C.3     1  UNL1        0.0477
     12 H          13.2458    7.4191    4.4269 H       1  UNL1        0.0560
     13 H          13.2736    6.6585    6.0387 H       1  UNL1        0.0560
@<TRIPOS>BOND
     1    12    11    1
     2     4     2    1
     3     1    11    1
     4     1     2    1
     5    10     8    1
     6    11    13    1
     7    11     8    1
     8     2     3    1
     9     2     5    1
    10     8     9    1
    11     8     5    1
    12     5     6    1
    13     5     7    1
