@<TRIPOS>MOLECULE
1
 13 13 0 0 0
SMALL
GASTEIGER

@<TRIPOS>ATOM
      1 O           7.2794    7.3983    5.2909 O.3     1  UNL1       -0.3798
      2 C           7.4525    6.5414    6.4153 C.3     1  UNL1        0.0477
      3 H           6.4939    6.0784    6.6444 H       1  UNL1        0.0560
      4 H           7.7913    7.1342    7.2773 H       1  UNL1        0.0560
      5 C           8.5346    5.5491    5.9891 C.3     1  UNL1       -0.0274
      6 H           9.0675    5.1349    6.8417 H       1  UNL1        0.0288
      7 H           8.0860    4.7358    5.4221 H       1  UNL1        0.0288
      8 C           9.4327    6.3981    5.0787 C.3     1  UNL1       -0.0274
      9 H           9.6395    5.8845    4.1425 H       1  UNL1        0.0288
     10 H          10.3788    6.6424    5.5587 H       1  UNL1        0.0288
     11 C           8.6022    7.6706    4.8317 C.3     1  UNL1        0.0477
     12 H           9.0122    8.5159    5.4011 H       1  UNL1        0.0560
     13 H           8.5414    7.9340    3.7758 H       1  UNL1        0.0560
@<TRIPOS>BOND
     1    13    11    1
     2     9     8    1
     3    11     8    1
     4    11     1    1
     5    11    12    1
     6     8    10    1
     7     8     5    1
     8     1     2    1
     9     7     5    1
    10     5     2    1
    11     5     6    1
    12     2     3    1
    13     2     4    1
