@<TRIPOS>MOLECULE
1
 41 40 0 0 0
SMALL
GASTEIGER

@<TRIPOS>ATOM
      1 O           3.0842    3.3621    1.9584 O.3     1  UNL1        0.0000
      2 SI          1.4612    3.3513    1.8743 Si      1  UNL1        0.0000
      3 C           0.8648    2.1904    3.3375 C.3     1  UNL1        0.0000
      4 C           1.6968    2.4756    4.5926 C.3     1  UNL1        0.0000
      5 H           1.4589    1.7510    5.3723 H       1  UNL1        0.0000
      6 H           1.5006    3.4657    4.9876 H       1  UNL1        0.0000
      7 H           2.7586    2.4002    4.3613 H       1  UNL1        0.0000
      8 C           1.0885    0.7127    3.0032 C.3     1  UNL1        0.0000
      9 H           0.8606    0.0965    3.8743 H       1  UNL1        0.0000
     10 H           2.1229    0.5380    2.7250 H       1  UNL1        0.0000
     11 H           0.4431    0.3844    2.1943 H       1  UNL1        0.0000
     12 C          -0.6166    2.3692    3.6741 C.3     1  UNL1        0.0000
     13 H          -0.9080    1.6749    4.4628 H       1  UNL1        0.0000
     14 H          -1.2399    2.1748    2.8060 H       1  UNL1        0.0000
     15 H          -0.8263    3.3751    4.0243 H       1  UNL1        0.0000
     16 C           1.0294    2.6344    0.1013 C.3     1  UNL1        0.0000
     17 C           1.2766    3.6740   -0.9958 C.3     1  UNL1        0.0000
     18 H           1.1442    3.2164   -1.9773 H       1  UNL1        0.0000
     19 H           2.2898    4.0582   -0.9342 H       1  UNL1        0.0000
     20 H           0.5781    4.5021   -0.9255 H       1  UNL1        0.0000
     21 C           1.9519    1.4519   -0.2144 C.3     1  UNL1        0.0000
     22 H           1.8045    1.1266   -1.2449 H       1  UNL1        0.0000
     23 H           1.7549    0.6053    0.4332 H       1  UNL1        0.0000
     24 H           2.9928    1.7475   -0.0895 H       1  UNL1        0.0000
     25 C          -0.4245    2.1740   -0.0174 C.3     1  UNL1        0.0000
     26 H          -0.6248    1.8227   -1.0300 H       1  UNL1        0.0000
     27 H          -1.1101    2.9883    0.1992 H       1  UNL1        0.0000
     28 H          -0.6403    1.3578    0.6651 H       1  UNL1        0.0000
     29 C           0.9099    5.2188    2.1026 C.3     1  UNL1        0.0000
     30 C           1.0292    5.6602    3.5643 C.3     1  UNL1        0.0000
     31 H           0.8338    6.7304    3.6460 H       1  UNL1        0.0000
     32 H           2.0296    5.4680    3.9390 H       1  UNL1        0.0000
     33 H           0.3094    5.1484    4.1956 H       1  UNL1        0.0000
     34 C           1.8441    6.1327    1.3021 C.3     1  UNL1        0.0000
     35 H           1.6228    7.1782    1.5203 H       1  UNL1        0.0000
     36 H           1.7319    5.9848    0.2342 H       1  UNL1        0.0000
     37 H           2.8808    5.9342    1.5711 H       1  UNL1        0.0000
     38 C          -0.5317    5.4734    1.6589 C.3     1  UNL1        0.0000
     39 H          -0.8027    6.5131    1.8446 H       1  UNL1        0.0000
     40 H          -1.2254    4.8409    2.2056 H       1  UNL1        0.0000
     41 H          -0.6611    5.2817    0.5982 H       1  UNL1        0.0000
@<TRIPOS>BOND
     1    18    17    1
     2    22    21    1
     3    26    25    1
     4    17    19    1
     5    17    20    1
     6    17    16    1
     7    21    24    1
     8    21    16    1
     9    21    23    1
    10    25    16    1
    11    25    27    1
    12    25    28    1
    13    16     2    1
    14    36    34    1
    15    41    38    1
    16    34    35    1
    17    34    37    1
    18    34    29    1
    19    38    39    1
    20    38    29    1
    21    38    40    1
    22     2     1    1
    23     2    29    1
    24     2     3    1
    25    29    30    1
    26    11     8    1
    27    10     8    1
    28    14    12    1
    29     8     3    1
    30     8     9    1
    31     3    12    1
    32     3     4    1
    33    30    31    1
    34    30    32    1
    35    30    33    1
    36    12    15    1
    37    12    13    1
    38     7     4    1
    39     4     6    1
    40     4     5    1
