@<TRIPOS>MOLECULE
1
 41 40 0 0 0
SMALL
GASTEIGER

@<TRIPOS>ATOM
      1 O           6.8279    3.3881    2.1525 O.3     1  UNL1        0.0000
      2 SI          8.4501    3.3992    2.2376 Si      1  UNL1        0.0000
      3 C           8.9976    5.2220    1.7588 C.3     1  UNL1        0.0000
      4 C           8.9136    5.4755    0.2509 C.3     1  UNL1        0.0000
      5 H           9.1432    6.5208    0.0391 H       1  UNL1        0.0000
      6 H           7.9117    5.2730   -0.1154 H       1  UNL1        0.0000
      7 H           9.6215    4.8666   -0.3024 H       1  UNL1        0.0000
      8 C          10.4295    5.5417    2.1927 C.3     1  UNL1        0.0000
      9 H          10.6989    6.5513    1.8811 H       1  UNL1        0.0000
     10 H          11.1357    4.8501    1.7420 H       1  UNL1        0.0000
     11 H          10.5427    5.4875    3.2707 H       1  UNL1        0.0000
     12 C           8.0392    6.2258    2.4090 C.3     1  UNL1        0.0000
     13 H           8.2772    7.2380    2.0797 H       1  UNL1        0.0000
     14 H           8.1070    6.2028    3.4905 H       1  UNL1        0.0000
     15 H           7.0122    6.0006    2.1213 H       1  UNL1        0.0000
     16 C           8.8900    2.9319    4.0923 C.3     1  UNL1        0.0000
     17 C           8.6724    4.1042    5.0533 C.3     1  UNL1        0.0000
     18 H           8.8465    3.7772    6.0795 H       1  UNL1        0.0000
     19 H           7.6514    4.4679    4.9877 H       1  UNL1        0.0000
     20 H           9.3532    4.9251    4.8518 H       1  UNL1        0.0000
     21 C           7.9528    1.8166    4.5686 C.3     1  UNL1        0.0000
     22 H           8.1265    1.6071    5.6247 H       1  UNL1        0.0000
     23 H           8.1098    0.8973    4.0163 H       1  UNL1        0.0000
     24 H           6.9144    2.1233    4.4426 H       1  UNL1        0.0000
     25 C          10.3404    2.4740    4.2580 C.3     1  UNL1        0.0000
     26 H          10.5461    2.2532    5.3058 H       1  UNL1        0.0000
     27 H          11.0314    3.2474    3.9344 H       1  UNL1        0.0000
     28 H          10.5446    1.5754    3.6849 H       1  UNL1        0.0000
     29 C           9.0617    2.0544    0.9458 C.3     1  UNL1        0.0000
     30 C           8.2096    2.1485   -0.3246 C.3     1  UNL1        0.0000
     31 H           8.4787    1.3492   -1.0160 H       1  UNL1        0.0000
     32 H           8.3536    3.0935   -0.8356 H       1  UNL1        0.0000
     33 H           7.1537    2.0480   -0.0733 H       1  UNL1        0.0000
     34 C          10.5367    2.2205    0.5745 C.3     1  UNL1        0.0000
     35 H          10.8388    1.4360   -0.1200 H       1  UNL1        0.0000
     36 H          11.1691    2.1529    1.4553 H       1  UNL1        0.0000
     37 H          10.7237    3.1760    0.0952 H       1  UNL1        0.0000
     38 C           8.8836    0.6257    1.4676 C.3     1  UNL1        0.0000
     39 H           9.1560   -0.0881    0.6889 H       1  UNL1        0.0000
     40 H           7.8480    0.4444    1.7391 H       1  UNL1        0.0000
     41 H           9.5141    0.4269    2.3284 H       1  UNL1        0.0000
@<TRIPOS>BOND
     1    31    30    1
     2    32    30    1
     3    30    33    1
     4    30    29    1
     5     7     4    1
     6    35    34    1
     7     6     4    1
     8     5     4    1
     9    37    34    1
    10     4     3    1
    11    34    29    1
    12    34    36    1
    13    39    38    1
    14    29    38    1
    15    29     2    1
    16    38    40    1
    17    38    41    1
    18    10     8    1
    19     3     8    1
    20     3     2    1
    21     3    12    1
    22     9     8    1
    23    13    12    1
    24    15    12    1
    25     1     2    1
    26     8    11    1
    27     2    16    1
    28    12    14    1
    29    28    25    1
    30    27    25    1
    31    23    21    1
    32    16    25    1
    33    16    21    1
    34    16    17    1
    35    25    26    1
    36    24    21    1
    37    21    22    1
    38    20    17    1
    39    19    17    1
    40    17    18    1
