@<TRIPOS>MOLECULE
2
 32 31 0 0 0
SMALL
GASTEIGER

@<TRIPOS>ATOM
      1 SI          5.3308   13.0340    8.1717 Si      1  UNL1        0.0000
      2 O           5.6963   11.9509    6.9741 O.3     1  UNL1        0.0000
      3 C           3.4375   12.7607    8.3960 C.3     1  UNL1        0.0000
      4 H           3.3032   11.6651    8.3910 H       1  UNL1        0.0000
      5 C           5.8349   14.7683    7.4873 C.3     1  UNL1        0.0000
      6 H           5.3785   14.8876    6.4968 H       1  UNL1        0.0000
      7 C           6.3754   12.4510    9.6878 C.3     1  UNL1        0.0000
      8 H           7.4145   12.3248    9.3541 H       1  UNL1        0.0000
      9 C           5.8725   11.0846   10.1715 C.3     1  UNL1        0.0000
     10 H           6.5977   10.6243   10.8409 H       1  UNL1        0.0000
     11 H           5.6839   10.4100    9.3349 H       1  UNL1        0.0000
     12 H           4.9421   11.2015   10.7195 H       1  UNL1        0.0000
     13 C           5.3120   15.9117    8.3527 C.3     1  UNL1        0.0000
     14 H           5.7115   15.8523    9.3598 H       1  UNL1        0.0000
     15 H           4.2287   15.8859    8.4151 H       1  UNL1        0.0000
     16 H           5.6038   16.8708    7.9284 H       1  UNL1        0.0000
     17 C           2.8514   13.3177    9.6915 C.3     1  UNL1        0.0000
     18 H           2.9737   14.3968    9.7402 H       1  UNL1        0.0000
     19 H           3.3284   12.8798   10.5629 H       1  UNL1        0.0000
     20 H           1.7869   13.0971    9.7471 H       1  UNL1        0.0000
     21 C           2.6519   13.3007    7.1972 C.3     1  UNL1        0.0000
     22 H           1.5864   13.1347    7.3455 H       1  UNL1        0.0000
     23 H           2.9509   12.7741    6.2920 H       1  UNL1        0.0000
     24 H           2.8109   14.3684    7.0633 H       1  UNL1        0.0000
     25 C           7.3498   14.9048    7.3161 C.3     1  UNL1        0.0000
     26 H           7.5969   15.8610    6.8576 H       1  UNL1        0.0000
     27 H           7.7513   14.1117    6.6855 H       1  UNL1        0.0000
     28 H           7.8490   14.8562    8.2799 H       1  UNL1        0.0000
     29 C           6.4164   13.4337   10.8567 C.3     1  UNL1        0.0000
     30 H           5.4160   13.6747   11.2018 H       1  UNL1        0.0000
     31 H           6.9109   14.3582   10.5721 H       1  UNL1        0.0000
     32 H           6.9676   13.0006   11.6896 H       1  UNL1        0.0000
@<TRIPOS>BOND
     1    23    21    1
     2     6     5    1
     3    27    25    1
     4    26    25    1
     5     2     1    1
     6    24    21    1
     7    21    22    1
     8    21     3    1
     9    25     5    1
    10    25    28    1
    11     5     1    1
    12     5    13    1
    13    16    13    1
    14     1     3    1
    15     1     7    1
    16    13    15    1
    17    13    14    1
    18     4     3    1
    19     3    17    1
    20    11     9    1
    21     8     7    1
    22     7     9    1
    23     7    29    1
    24    17    18    1
    25    17    20    1
    26    17    19    1
    27     9    12    1
    28     9    10    1
    29    31    29    1
    30    29    30    1
    31    29    32    1
