@<TRIPOS>MOLECULE
2
 32 31 0 0 0
SMALL
GASTEIGER

@<TRIPOS>ATOM
      1 SI         -4.5447    7.1923   13.7671 Si      1  UNL1        0.0000
      2 O          -5.4364    7.4606   15.1421 O.3     1  UNL1        0.0000
      3 C          -4.3503    5.2794   13.5674 C.3     1  UNL1        0.0000
      4 H          -4.1407    4.8856   14.5724 H       1  UNL1        0.0000
      5 C          -5.4353    7.9529   12.2318 C.3     1  UNL1        0.0000
      6 H          -6.1138    7.1927   11.8318 H       1  UNL1        0.0000
      7 C          -3.1884    4.8970   12.6489 C.3     1  UNL1        0.0000
      8 H          -3.0438    3.8185   12.6558 H       1  UNL1        0.0000
      9 H          -2.2574    5.3654   12.9495 H       1  UNL1        0.0000
     10 H          -3.4028    5.1973   11.6263 H       1  UNL1        0.0000
     11 C          -5.6098    4.5797   13.0512 C.3     1  UNL1        0.0000
     12 H          -5.8126    4.8689   12.0226 H       1  UNL1        0.0000
     13 H          -6.4736    4.8265   13.6584 H       1  UNL1        0.0000
     14 H          -5.4729    3.5001   13.0727 H       1  UNL1        0.0000
     15 C          -2.8349    7.9799   14.1951 C.3     1  UNL1        0.0000
     16 H          -2.1952    7.9966   13.3078 H       1  UNL1        0.0000
     17 C          -2.1248    7.1578   15.2737 C.3     1  UNL1        0.0000
     18 H          -1.2286    7.6767   15.6102 H       1  UNL1        0.0000
     19 H          -1.8305    6.1799   14.9039 H       1  UNL1        0.0000
     20 H          -2.7840    7.0109   16.1423 H       1  UNL1        0.0000
     21 C          -6.2790    9.1964   12.5088 C.3     1  UNL1        0.0000
     22 H          -5.6622   10.0127   12.8746 H       1  UNL1        0.0000
     23 H          -7.0511    8.9843   13.2443 H       1  UNL1        0.0000
     24 H          -6.7652    9.5278   11.5928 H       1  UNL1        0.0000
     25 C          -4.4149    8.2608   11.1375 C.3     1  UNL1        0.0000
     26 H          -4.9194    8.5900   10.2312 H       1  UNL1        0.0000
     27 H          -3.8249    7.3821   10.8978 H       1  UNL1        0.0000
     28 H          -3.7374    9.0490   11.4530 H       1  UNL1        0.0000
     29 C          -2.9927    9.4191   14.6905 C.3     1  UNL1        0.0000
     30 H          -3.5561    9.4202   15.6253 H       1  UNL1        0.0000
     31 H          -3.5083   10.0387   13.9606 H       1  UNL1        0.0000
     32 H          -2.0175    9.8633   14.8820 H       1  UNL1        0.0000
@<TRIPOS>BOND
     1    26    25    1
     2    27    25    1
     3    25    28    1
     4    25     5    1
     5    24    21    1
     6    10     7    1
     7     6     5    1
     8    12    11    1
     9     5    21    1
    10     5     1    1
    11    21    22    1
    12    21    23    1
    13     7     8    1
    14     7     9    1
    15     7     3    1
    16    11    14    1
    17    11     3    1
    18    11    13    1
    19    16    15    1
    20     3     1    1
    21     3     4    1
    22     1    15    1
    23     1     2    1
    24    31    29    1
    25    15    29    1
    26    15    17    1
    27    29    32    1
    28    29    30    1
    29    19    17    1
    30    17    18    1
    31    17    20    1
