@<TRIPOS>MOLECULE
1
 32 31 0 0 0
SMALL
GASTEIGER

@<TRIPOS>ATOM
      1 O           6.4250   27.2517    1.3211 O.3     1  UNL1        0.0000
      2 SI          5.8418   28.1232    2.5690 Si      1  UNL1        0.0000
      3 C           6.8594   27.5630    4.1193 C.3     1  UNL1        0.0000
      4 H           7.9123   27.5424    3.8070 H       1  UNL1        0.0000
      5 C           6.0750   29.9746    2.0845 C.3     1  UNL1        0.0000
      6 H           5.6061   30.1232    1.1036 H       1  UNL1        0.0000
      7 C           6.4687   26.1377    4.5461 C.3     1  UNL1        0.0000
      8 H           7.3006   25.6391    5.0407 H       1  UNL1        0.0000
      9 H           6.1444   25.5334    3.6936 H       1  UNL1        0.0000
     10 H           5.6462   26.1746    5.2546 H       1  UNL1        0.0000
     11 C           3.9801   27.5765    2.6692 C.3     1  UNL1        0.0000
     12 H           3.9706   26.4810    2.4068 H       1  UNL1        0.0000
     13 C           5.4136   30.9513    3.0519 C.3     1  UNL1        0.0000
     14 H           5.8612   30.8830    4.0375 H       1  UNL1        0.0000
     15 H           4.3512   30.7504    3.1483 H       1  UNL1        0.0000
     16 H           5.5342   31.9733    2.6970 H       1  UNL1        0.0000
     17 C           3.3140   27.7594    4.0325 C.3     1  UNL1        0.0000
     18 H           3.3195   28.8094    4.3163 H       1  UNL1        0.0000
     19 H           3.8214   27.1925    4.8053 H       1  UNL1        0.0000
     20 H           2.2788   27.4248    3.9974 H       1  UNL1        0.0000
     21 C           6.7888   28.4991    5.3241 C.3     1  UNL1        0.0000
     22 H           5.7615   28.6533    5.6393 H       1  UNL1        0.0000
     23 H           7.2256   29.4653    5.0905 H       1  UNL1        0.0000
     24 H           7.3420   28.0744    6.1599 H       1  UNL1        0.0000
     25 C           3.1398   28.2927    1.6055 C.3     1  UNL1        0.0000
     26 H           2.1029   27.9650    1.6628 H       1  UNL1        0.0000
     27 H           3.5116   28.0487    0.6087 H       1  UNL1        0.0000
     28 H           3.1615   29.3709    1.7439 H       1  UNL1        0.0000
     29 C           7.5572   30.3205    1.9338 C.3     1  UNL1        0.0000
     30 H           7.6776   31.3374    1.5649 H       1  UNL1        0.0000
     31 H           8.0482   29.6428    1.2375 H       1  UNL1        0.0000
     32 H           8.0647   30.2473    2.8915 H       1  UNL1        0.0000
@<TRIPOS>BOND
     1    27    25    1
     2     6     5    1
     3    31    29    1
     4     1     2    1
     5    30    29    1
     6    25    26    1
     7    25    28    1
     8    25    11    1
     9    29     5    1
    10    29    32    1
    11     5     2    1
    12     5    13    1
    13    12    11    1
    14     2    11    1
    15     2     3    1
    16    11    17    1
    17    16    13    1
    18    13    15    1
    19    13    14    1
    20     9     7    1
    21     4     3    1
    22    20    17    1
    23    17    18    1
    24    17    19    1
    25     3     7    1
    26     3    21    1
    27     7     8    1
    28     7    10    1
    29    23    21    1
    30    21    22    1
    31    21    24    1
