@<TRIPOS>MOLECULE
1
 15 15 0 0 0
SMALL
GASTEIGER

@<TRIPOS>ATOM
      1 O           3.5772    1.4025    2.5873 O.3     1  UNL1       -0.2876
      2 C           4.9011    1.4389    2.5303 C.ar    1  UNL1        0.1819
      3 C           5.6705    0.6501    3.3917 C.ar    1  UNL1       -0.0147
      4 C           7.0496    0.7026    3.3359 C.ar    1  UNL1       -0.0581
      5 C           7.6783    1.5349    2.4244 C.ar    1  UNL1       -0.0613
      6 C           6.9207    2.3096    1.5616 C.ar    1  UNL1       -0.0552
      7 C           5.5373    2.2725    1.5919 C.ar    1  UNL1       -0.0038
      8 C           4.6894    3.0848    0.6595 C.3     1  UNL1       -0.0361
      9 H           7.4133    2.9567    0.8492 H       1  UNL1        0.0621
     10 H           5.1567    0.0107    4.1017 H       1  UNL1        0.0656
     11 H           8.7562    1.5805    2.3843 H       1  UNL1        0.0618
     12 H           7.6368    0.0933    4.0074 H       1  UNL1        0.0619
     13 H           5.2688    3.8785    0.1946 H       1  UNL1        0.0279
     14 H           3.8525    3.5165    1.2107 H       1  UNL1        0.0279
     15 H           4.2818    2.4470   -0.1276 H       1  UNL1        0.0279
@<TRIPOS>BOND
     1    15     8    1
     2    13     8    1
     3     8    14    1
     4     8     7    1
     5     9     6    1
     6     6     7   ar
     7     6     5   ar
     8     7     2   ar
     9    11     5    1
    10     5     4   ar
    11     2     1    1
    12     2     3   ar
    13     4     3   ar
    14     4    12    1
    15     3    10    1
