@<TRIPOS>MOLECULE
1
 15 15 0 0 0
SMALL
GASTEIGER

@<TRIPOS>ATOM
      1 O           2.4053   -0.2350    4.5140 O.3     1  UNL1       -0.2876
      2 C           2.5792   -1.5292    4.2845 C.ar    1  UNL1        0.1819
      3 C           3.1673   -1.9542    3.0855 C.ar    1  UNL1       -0.0147
      4 C           3.3422   -3.3004    2.8299 C.ar    1  UNL1       -0.0581
      5 C           2.9335   -4.2431    3.7595 C.ar    1  UNL1       -0.0613
      6 C           2.3532   -3.8301    4.9468 C.ar    1  UNL1       -0.0552
      7 C           2.1686   -2.4867    5.2312 C.ar    1  UNL1       -0.0038
      8 C           1.5496   -2.0341    6.5216 C.3     1  UNL1       -0.0361
      9 H           0.7379   -2.6968    6.8148 H       1  UNL1        0.0279
     10 H           1.1686   -1.0173    6.4156 H       1  UNL1        0.0279
     11 H           3.4890   -1.1961    2.3733 H       1  UNL1        0.0656
     12 H           2.2934   -2.0361    7.3196 H       1  UNL1        0.0279
     13 H           3.0665   -5.2956    3.5605 H       1  UNL1        0.0618
     14 H           2.0333   -4.5649    5.6721 H       1  UNL1        0.0621
     15 H           3.7981   -3.6153    1.9025 H       1  UNL1        0.0619
@<TRIPOS>BOND
     1    15     4    1
     2    11     3    1
     3     4     3   ar
     4     4     5   ar
     5     3     2   ar
     6    13     5    1
     7     5     6   ar
     8     2     1    1
     9     2     7   ar
    10     6     7   ar
    11     6    14    1
    12     7     8    1
    13    10     8    1
    14     8     9    1
    15     8    12    1
