@<TRIPOS>MOLECULE
1
 13 13 0 0 0
SMALL
GASTEIGER

@<TRIPOS>ATOM
      1 O          13.1923    3.1422   20.6070 O.3     1  UNL1       -0.3798
      2 C          14.0344    4.2467   20.9428 C.3     1  UNL1        0.0477
      3 C          13.1907    5.1833   21.7977 C.3     1  UNL1       -0.0274
      4 C          12.2869    4.1913   22.5215 C.3     1  UNL1       -0.0274
      5 C          12.0057    3.1949   21.4042 C.3     1  UNL1        0.0477
      6 H          14.8980    3.8591   21.4966 H       1  UNL1        0.0560
      7 H          14.3865    4.7152   20.0215 H       1  UNL1        0.0560
      8 H          13.7951    5.7938   22.4655 H       1  UNL1        0.0288
      9 H          12.5966    5.8237   21.1468 H       1  UNL1        0.0288
     10 H          12.8252    3.7117   23.3413 H       1  UNL1        0.0288
     11 H          11.3744    4.6405   22.9055 H       1  UNL1        0.0288
     12 H          11.1782    3.5386   20.7763 H       1  UNL1        0.0560
     13 H          11.7937    2.1807   21.7458 H       1  UNL1        0.0560
@<TRIPOS>BOND
     1     7     2    1
     2     1     2    1
     3     1     5    1
     4    12     5    1
     5     2     6    1
     6     2     3    1
     7     9     3    1
     8     5    13    1
     9     5     4    1
    10     3     8    1
    11     3     4    1
    12     4    11    1
    13     4    10    1
