@<TRIPOS>MOLECULE
1
 14 13 0 0 0
SMALL
GASTEIGER

@<TRIPOS>ATOM
      1 O           2.9551    6.0322    7.8713 O.3     1  UNL1       -0.2285
      2 C           3.8432    5.4785    6.9449 C.3     1  UNL1        0.0962
      3 C           5.2017    6.1756    7.1047 C.3     1  UNL1       -0.0333
      4 H           5.0725    7.2502    6.9756 H       1  UNL1        0.0258
      5 H           5.9106    5.8072    6.3689 H       1  UNL1        0.0258
      6 H           5.5917    5.9912    8.1044 H       1  UNL1        0.0258
      7 C           3.2477    5.7447    5.5511 C.3     1  UNL1       -0.0333
      8 H           3.1571    6.8214    5.3958 H       1  UNL1        0.0258
      9 H           2.2586    5.2860    5.4862 H       1  UNL1        0.0258
     10 H           3.8821    5.3284    4.7736 H       1  UNL1        0.0258
     11 C           3.9442    3.9716    7.2211 C.3     1  UNL1       -0.0333
     12 H           2.9482    3.5305    7.1808 H       1  UNL1        0.0258
     13 H           4.3538    3.8086    8.2165 H       1  UNL1        0.0258
     14 H           4.5824    3.4892    6.4866 H       1  UNL1        0.0258
@<TRIPOS>BOND
     1    10     7    1
     2     8     7    1
     3     9     7    1
     4     7     2    1
     5     5     3    1
     6    14    11    1
     7     2     3    1
     8     2    11    1
     9     2     1    1
    10     4     3    1
    11     3     6    1
    12    12    11    1
    13    11    13    1
