@<TRIPOS>MOLECULE
1
 14 13 0 0 0
SMALL
GASTEIGER

@<TRIPOS>ATOM
      1 O           0.0248    7.7527    8.5008 O.3     1  UNL1       -0.2285
      2 C          -0.9967    8.3595    7.7522 C.3     1  UNL1        0.0962
      3 C          -2.3613    7.8991    8.2785 C.3     1  UNL1       -0.0333
      4 H          -2.4571    8.1623    9.3301 H       1  UNL1        0.0258
      5 H          -2.4490    6.8182    8.1836 H       1  UNL1        0.0258
      6 H          -3.1596    8.3740    7.7150 H       1  UNL1        0.0258
      7 C          -0.8598    9.8847    7.8547 C.3     1  UNL1       -0.0333
      8 H           0.1505   10.1841    7.5769 H       1  UNL1        0.0258
      9 H          -1.0472   10.2068    8.8757 H       1  UNL1        0.0258
     10 H          -1.5701   10.3700    7.1911 H       1  UNL1        0.0258
     11 C          -0.7975    7.9078    6.2912 C.3     1  UNL1       -0.0333
     12 H           0.2165    8.1638    5.9671 H       1  UNL1        0.0258
     13 H          -1.5063    8.4080    5.6363 H       1  UNL1        0.0258
     14 H          -0.9465    6.8294    6.2085 H       1  UNL1        0.0258
@<TRIPOS>BOND
     1    13    11    1
     2    12    11    1
     3    14    11    1
     4    11     2    1
     5    10     7    1
     6     8     7    1
     7     6     3    1
     8     2     7    1
     9     2     3    1
    10     2     1    1
    11     7     9    1
    12     5     3    1
    13     3     4    1
