@<TRIPOS>MOLECULE
1
 44 43 0 0 0
SMALL
GASTEIGER

@<TRIPOS>ATOM
      1 O           1.9700    4.3496    0.5865 O.3     1  UNL1        0.0000
      2 O           1.4821    6.2969    2.1851 O.3     1  UNL1        0.0000
      3 O          -0.3880    5.6662    0.4373 O.3     1  UNL1        0.0000
      4 O           0.0444    4.0014    2.4046 O.3     1  UNL1        0.0000
      5 SI          0.7910    5.0535    1.3860 Si      1  UNL1        0.0000
      6 C           0.9006    7.4279    2.8035 C.3     1  UNL1        0.0000
      7 C          -0.3150    7.0203    3.6335 C.3     1  UNL1        0.0000
      8 H          -1.0557    6.5707    2.9799 H       1  UNL1        0.0000
      9 H          -0.7435    7.8844    4.1349 H       1  UNL1        0.0000
     10 H          -0.0235    6.2820    4.3755 H       1  UNL1        0.0000
     11 C           0.4849    8.4297    1.7241 C.3     1  UNL1        0.0000
     12 H           1.3544    8.7300    1.1445 H       1  UNL1        0.0000
     13 H           0.0304    9.3097    2.1715 H       1  UNL1        0.0000
     14 H          -0.2243    7.9468    1.0596 H       1  UNL1        0.0000
     15 C           1.9837    8.0326    3.7045 C.3     1  UNL1        0.0000
     16 H           2.2926    7.3065    4.4522 H       1  UNL1        0.0000
     17 H           1.6069    8.9205    4.2052 H       1  UNL1        0.0000
     18 H           2.8511    8.3013    3.1072 H       1  UNL1        0.0000
     19 C          -0.9263    5.1254   -0.7563 C.3     1  UNL1        0.0000
     20 C           0.0797    5.3225   -1.8946 C.3     1  UNL1        0.0000
     21 H           0.2914    6.3812   -2.0226 H       1  UNL1        0.0000
     22 H          -0.3166    4.9235   -2.8246 H       1  UNL1        0.0000
     23 H           1.0064    4.8086   -1.6439 H       1  UNL1        0.0000
     24 C          -1.2286    3.6366   -0.5924 C.3     1  UNL1        0.0000
     25 H          -0.2946    3.0936   -0.4730 H       1  UNL1        0.0000
     26 H          -1.7596    3.2580   -1.4622 H       1  UNL1        0.0000
     27 H          -1.8342    3.4861    0.2967 H       1  UNL1        0.0000
     28 C          -2.2167    5.9033   -1.0370 C.3     1  UNL1        0.0000
     29 H          -2.9177    5.7596   -0.2191 H       1  UNL1        0.0000
     30 H          -2.6726    5.5615   -1.9623 H       1  UNL1        0.0000
     31 H          -1.9980    6.9648   -1.1201 H       1  UNL1        0.0000
     32 C           0.5933    2.8900    3.0861 C.3     1  UNL1        0.0000
     33 C          -0.4011    2.5335    4.1979 C.3     1  UNL1        0.0000
     34 H          -0.4936    3.3657    4.8905 H       1  UNL1        0.0000
     35 H          -0.0675    1.6532    4.7405 H       1  UNL1        0.0000
     36 H          -1.3790    2.3380    3.7666 H       1  UNL1        0.0000
     37 C           0.7434    1.7134    2.1141 C.3     1  UNL1        0.0000
     38 H          -0.2192    1.4668    1.6741 H       1  UNL1        0.0000
     39 H           1.1357    0.8425    2.6317 H       1  UNL1        0.0000
     40 H           1.4363    1.9953    1.3156 H       1  UNL1        0.0000
     41 C           1.9611    3.2284    3.6810 C.3     1  UNL1        0.0000
     42 H           2.6741    3.3982    2.8759 H       1  UNL1        0.0000
     43 H           2.3139    2.4145    4.3091 H       1  UNL1        0.0000
     44 H           1.8875    4.1347    4.2757 H       1  UNL1        0.0000
@<TRIPOS>BOND
     1    22    20    1
     2    21    20    1
     3    30    28    1
     4    20    23    1
     5    20    19    1
     6    26    24    1
     7    31    28    1
     8    28    19    1
     9    28    29    1
    10    19    24    1
    11    19     3    1
    12    24    25    1
    13    24    27    1
    14     3     5    1
    15     1     5    1
    16    14    11    1
    17    12    11    1
    18    40    37    1
    19     5     2    1
    20     5     4    1
    21    38    37    1
    22    11    13    1
    23    11     6    1
    24    37    39    1
    25    37    32    1
    26     2     6    1
    27     4    32    1
    28     6     7    1
    29     6    15    1
    30    42    41    1
    31     8     7    1
    32    32    41    1
    33    32    33    1
    34    18    15    1
    35     7     9    1
    36     7    10    1
    37    41    44    1
    38    41    43    1
    39    15    17    1
    40    15    16    1
    41    36    33    1
    42    33    35    1
    43    33    34    1
