@<TRIPOS>MOLECULE
1
 44 43 0 0 0
SMALL
GASTEIGER

@<TRIPOS>ATOM
      1 O           4.3251    1.9808   -0.6175 O.3     1  UNL1        0.0000
      2 O           6.3021    1.4746   -2.1733 O.3     1  UNL1        0.0000
      3 O           5.6459   -0.3700   -0.4083 O.3     1  UNL1        0.0000
      4 O           4.0135    0.0286   -2.4116 O.3     1  UNL1        0.0000
      5 SI          5.0464    0.7920   -1.3862 Si      1  UNL1        0.0000
      6 C           7.4463    0.8873   -2.7612 C.3     1  UNL1        0.0000
      7 C           7.0585   -0.3446   -3.5765 C.3     1  UNL1        0.0000
      8 H           6.6014   -1.0761   -2.9177 H       1  UNL1        0.0000
      9 H           7.9329   -0.7774   -4.0559 H       1  UNL1        0.0000
     10 H           6.3313   -0.0697   -4.3357 H       1  UNL1        0.0000
     11 C           8.4304    0.4952   -1.6569 C.3     1  UNL1        0.0000
     12 H           8.7174    1.3762   -1.0881 H       1  UNL1        0.0000
     13 H           9.3197    0.0358   -2.0804 H       1  UNL1        0.0000
     14 H           7.9382   -0.2038   -0.9882 H       1  UNL1        0.0000
     15 C           8.0625    1.9570   -3.6703 C.3     1  UNL1        0.0000
     16 H           7.3489    2.2488   -4.4367 H       1  UNL1        0.0000
     17 H           8.9613    1.5758   -4.1476 H       1  UNL1        0.0000
     18 H           8.3159    2.8363   -3.0838 H       1  UNL1        0.0000
     19 C           5.0851   -0.8924    0.7832 C.3     1  UNL1        0.0000
     20 C           5.2536    0.1326    1.9091 C.3     1  UNL1        0.0000
     21 H           6.3084    0.3511    2.0567 H       1  UNL1        0.0000
     22 H           4.8364   -0.2509    2.8365 H       1  UNL1        0.0000
     23 H           4.7417    1.0533    1.6332 H       1  UNL1        0.0000
     24 C           3.6018   -1.2069    0.5949 C.3     1  UNL1        0.0000
     25 H           3.0556   -0.2785    0.4505 H       1  UNL1        0.0000
     26 H           3.2094   -1.7270    1.4653 H       1  UNL1        0.0000
     27 H           3.4724   -1.8270   -0.2875 H       1  UNL1        0.0000
     28 C           5.8651   -2.1733    1.0998 C.3     1  UNL1        0.0000
     29 H           5.7415   -2.8883    0.2908 H       1  UNL1        0.0000
     30 H           5.5083   -2.6162    2.0257 H       1  UNL1        0.0000
     31 H           6.9235   -1.9466    1.1998 H       1  UNL1        0.0000
     32 C           2.9112    0.5664   -3.1169 C.3     1  UNL1        0.0000
     33 C           2.5715   -0.4447   -4.2187 C.3     1  UNL1        0.0000
     34 H           3.4135   -0.5465   -4.8980 H       1  UNL1        0.0000
     35 H           1.6986   -0.1202   -4.7785 H       1  UNL1        0.0000
     36 H           2.3708   -1.4164   -3.7757 H       1  UNL1        0.0000
     37 C           1.7208    0.7302   -2.1641 C.3     1  UNL1        0.0000
     38 H           1.4689   -0.2258   -1.7129 H       1  UNL1        0.0000
     39 H           0.8570    1.1133   -2.7002 H       1  UNL1        0.0000
     40 H           1.9907    1.4356   -1.3727 H       1  UNL1        0.0000
     41 C           3.2575    1.9254   -3.7270 C.3     1  UNL1        0.0000
     42 H           3.4141    2.6502   -2.9299 H       1  UNL1        0.0000
     43 H           2.4532    2.2679   -4.3728 H       1  UNL1        0.0000
     44 H           4.1730    1.8439   -4.3064 H       1  UNL1        0.0000
@<TRIPOS>BOND
     1    34    33    1
     2    35    33    1
     3    16    15    1
     4    43    41    1
     5    10     7    1
     6    44    41    1
     7    33    36    1
     8    33    32    1
     9    17    15    1
    10     9     7    1
    11    41    32    1
    12    41    42    1
    13    15    18    1
    14    15     6    1
    15     7     8    1
    16     7     6    1
    17    32     4    1
    18    32    37    1
    19     6     2    1
    20     6    11    1
    21    39    37    1
    22     4     5    1
    23     2     5    1
    24    37    38    1
    25    37    40    1
    26    13    11    1
    27    11    12    1
    28    11    14    1
    29     5     1    1
    30     5     3    1
    31     3    19    1
    32    27    24    1
    33    29    28    1
    34    25    24    1
    35    24    19    1
    36    24    26    1
    37    19    28    1
    38    19    20    1
    39    28    31    1
    40    28    30    1
    41    23    20    1
    42    20    21    1
    43    20    22    1
