@<TRIPOS>MOLECULE
1
 22 21 0 0 0
SMALL
GASTEIGER

@<TRIPOS>ATOM
      1 O           4.9961    0.4424   -1.2638 O.2     1  UNL1       -0.2457
      2 O           4.8746    2.2492   -2.6719 O.2     1  UNL1       -0.4589
      3 C           5.5519    3.0850   -1.7303 C.3     1  UNL1        0.0978
      4 H           5.2771    2.7600   -0.7081 H       1  UNL1        0.0728
      5 C           5.0717    4.5113   -1.9703 C.3     1  UNL1       -0.0280
      6 H           3.9959    4.5805   -1.8383 H       1  UNL1        0.0265
      7 H           5.3142    4.8142   -2.9862 H       1  UNL1        0.0265
      8 H           5.5596    5.1868   -1.2726 H       1  UNL1        0.0265
      9 C           7.0645    2.9747   -1.9320 C.3     1  UNL1       -0.0280
     10 H           7.3873    1.9443   -1.7931 H       1  UNL1        0.0265
     11 H           7.5893    3.6120   -1.2248 H       1  UNL1        0.0265
     12 H           7.3216    3.2837   -2.9435 H       1  UNL1        0.0265
     13 C           5.0667    0.8845   -2.5032 C.2     1  UNL1        0.3309
     14 C           5.2753    0.1042   -3.5760 C.2     1  UNL1        0.0082
     15 C           5.3562    0.6542   -4.9679 C.3     1  UNL1       -0.0370
     16 H           5.3358    1.7394   -4.9488 H       1  UNL1        0.0277
     17 H           4.5172    0.3008   -5.5686 H       1  UNL1        0.0277
     18 H           6.2741    0.3198   -5.4521 H       1  UNL1        0.0277
     19 C           5.4004   -1.3843   -3.4253 C.3     1  UNL1       -0.0370
     20 H           5.2467   -1.6709   -2.3840 H       1  UNL1        0.0277
     21 H           6.3905   -1.7166   -3.7409 H       1  UNL1        0.0277
     22 H           4.6669   -1.8938   -4.0516 H       1  UNL1        0.0277
@<TRIPOS>BOND
     1    17    15    1
     2    18    15    1
     3    15    16    1
     4    15    14    1
     5    22    19    1
     6    21    19    1
     7    14    19    1
     8    14    13    2
     9    19    20    1
    10     7     5    1
    11    12     9    1
    12     2    13    1
    13     2     3    1
    14    13     1    1
    15     5     6    1
    16     5     3    1
    17     5     8    1
    18     9    10    1
    19     9     3    1
    20     9    11    1
    21     3     4    1
