@<TRIPOS>MOLECULE
1
 12 12 0 0 0
SMALL
GASTEIGER

@<TRIPOS>ATOM
      1 O           9.8757   10.4731   12.0689 O.3     1  UNL1       -0.2879
      2 C          10.4798   10.4136   10.9104 C.ar    1  UNL1        0.1790
      3 C           9.8534   10.0544    9.7030 C.ar    1  UNL1       -0.0149
      4 H           8.7980    9.8044    9.7173 H       1  UNL1        0.0656
      5 C          11.9130   10.3109    8.4856 C.ar    1  UNL1       -0.0615
      6 H          12.4604   10.2729    7.5557 H       1  UNL1        0.0618
      7 C          12.5500   10.6641    9.6647 C.ar    1  UNL1       -0.0581
      8 H          13.6046   10.9035    9.6569 H       1  UNL1        0.0619
      9 C          11.8572   10.7149   10.8543 C.ar    1  UNL1       -0.0149
     10 H          12.3562   10.9882   11.7730 H       1  UNL1        0.0656
     11 C          10.5621   10.0062    8.5201 C.ar    1  UNL1       -0.0581
     12 H          10.0502    9.7247    7.6095 H       1  UNL1        0.0619
@<TRIPOS>BOND
     1     6     5    1
     2    12    11    1
     3     5    11   ar
     4     5     7   ar
     5    11     3   ar
     6     8     7    1
     7     7     9   ar
     8     3     4    1
     9     3     2   ar
    10     9     2   ar
    11     9    10    1
    12     2     1    1
