@<TRIPOS>MOLECULE
1
 13 13 0 0 0
SMALL
GASTEIGER

@<TRIPOS>ATOM
      1 O           3.7469   10.3298   11.5845 O.3     1  UNL1       -0.3798
      2 C           2.8291   11.2377   12.1884 C.3     1  UNL1        0.0477
      3 H           2.9593   11.1793   13.2687 H       1  UNL1        0.0560
      4 H           1.8031   10.9454   11.9168 H       1  UNL1        0.0560
      5 C           3.1774   12.6050   11.5936 C.3     1  UNL1       -0.0274
      6 H           2.3124   13.2635   11.5594 H       1  UNL1        0.0288
      7 H           3.9596   13.0759   12.1863 H       1  UNL1        0.0288
      8 C           3.7123   12.2532   10.1951 C.3     1  UNL1       -0.0274
      9 H           4.7019   12.6809   10.0459 H       1  UNL1        0.0288
     10 H           3.0558   12.6068    9.4022 H       1  UNL1        0.0288
     11 C           3.7737   10.7170   10.2114 C.3     1  UNL1        0.0477
     12 H           2.8926   10.2970    9.7038 H       1  UNL1        0.0560
     13 H           4.6762   10.3067    9.7565 H       1  UNL1        0.0560
@<TRIPOS>BOND
     1    10     8    1
     2    12    11    1
     3    13    11    1
     4     9     8    1
     5     8    11    1
     6     8     5    1
     7    11     1    1
     8     6     5    1
     9     1     2    1
    10     5     7    1
    11     5     2    1
    12     4     2    1
    13     2     3    1
