@<TRIPOS>MOLECULE
1
 13 13 0 0 0
SMALL
GASTEIGER

@<TRIPOS>ATOM
      1 O           4.0624    2.7568   12.3994 O.3     1  UNL1       -0.3798
      2 C           2.7333    3.3093   12.3748 C.3     1  UNL1        0.0477
      3 H           2.6285    3.9511   13.2541 H       1  UNL1        0.0560
      4 H           2.0026    2.4949   12.4428 H       1  UNL1        0.0560
      5 C           2.5871    4.0934   11.0657 C.3     1  UNL1       -0.0274
      6 H           2.0697    5.0379   11.2149 H       1  UNL1        0.0288
      7 H           2.0364    3.5054   10.3309 H       1  UNL1        0.0288
      8 C           4.0348    4.2772   10.6154 C.3     1  UNL1       -0.0274
      9 H           4.1343    4.3949    9.5392 H       1  UNL1        0.0288
     10 H           4.4886    5.1325   11.1162 H       1  UNL1        0.0288
     11 C           4.6671    2.9887   11.1242 C.3     1  UNL1        0.0477
     12 H           4.4308    2.1482   10.4544 H       1  UNL1        0.0560
     13 H           5.7467    3.0590   11.2777 H       1  UNL1        0.0560
@<TRIPOS>BOND
     1     9     8    1
     2     7     5    1
     3    12    11    1
     4     8     5    1
     5     8    10    1
     6     8    11    1
     7     5     6    1
     8     5     2    1
     9    11    13    1
    10    11     1    1
    11     2     1    1
    12     2     4    1
    13     2     3    1
