@<TRIPOS>MOLECULE
1
 13 13 0 0 0
SMALL
GASTEIGER

@<TRIPOS>ATOM
      1 O           0.7407    5.7400    6.4131 O.3     1  UNL1       -0.3798
      2 C           1.5530    4.9674    5.5336 C.3     1  UNL1        0.0477
      3 H           2.4196    4.5785    6.0841 H       1  UNL1        0.0560
      4 H           1.8853    5.6098    4.7210 H       1  UNL1        0.0560
      5 C           0.0611    4.7739    7.2130 C.3     1  UNL1        0.0477
      6 H          -0.8414    5.2387    7.6086 H       1  UNL1        0.0560
      7 H           0.7068    4.4806    8.0505 H       1  UNL1        0.0560
      8 C          -0.2276    3.5645    6.3034 C.3     1  UNL1       -0.0274
      9 H          -1.2807    3.5144    6.0329 H       1  UNL1        0.0288
     10 H           0.0384    2.6358    6.8046 H       1  UNL1        0.0288
     11 C           0.6543    3.8192    5.0720 C.3     1  UNL1       -0.0274
     12 H           1.2313    2.9456    4.7796 H       1  UNL1        0.0288
     13 H           0.0545    4.1430    4.2225 H       1  UNL1        0.0288
@<TRIPOS>BOND
     1    13    11    1
     2     4     2    1
     3    12    11    1
     4    11     2    1
     5    11     8    1
     6     2     3    1
     7     2     1    1
     8     9     8    1
     9     8    10    1
    10     8     5    1
    11     1     5    1
    12     5     6    1
    13     5     7    1
