@<TRIPOS>MOLECULE
1
 13 13 0 0 0
SMALL
GASTEIGER

@<TRIPOS>ATOM
      1 O           2.7514    6.7566    2.6200 O.3     1  UNL1       -0.3798
      2 C           2.9704    5.3708    2.8810 C.3     1  UNL1        0.0477
      3 H           2.4490    5.0939    3.8056 H       1  UNL1        0.0560
      4 H           4.0432    5.2247    3.0068 H       1  UNL1        0.0560
      5 C           1.5200    6.8065    1.9068 C.3     1  UNL1        0.0477
      6 H           1.4502    7.7742    1.4128 H       1  UNL1        0.0560
      7 H           0.6836    6.6903    2.6096 H       1  UNL1        0.0560
      8 C           1.5664    5.6314    0.9293 C.3     1  UNL1       -0.0274
      9 H           0.5702    5.2741    0.6794 H       1  UNL1        0.0288
     10 H           2.0751    5.9305    0.0150 H       1  UNL1        0.0288
     11 C           2.4012    4.5892    1.6843 C.3     1  UNL1       -0.0274
     12 H           3.2028    4.2046    1.0573 H       1  UNL1        0.0288
     13 H           1.7936    3.7527    2.0244 H       1  UNL1        0.0288
@<TRIPOS>BOND
     1    10     8    1
     2     9     8    1
     3     8    11    1
     4     8     5    1
     5    12    11    1
     6     6     5    1
     7    11    13    1
     8    11     2    1
     9     5     7    1
    10     5     1    1
    11     1     2    1
    12     2     4    1
    13     2     3    1
