@<TRIPOS>MOLECULE
1
 13 13 0 0 0
SMALL
GASTEIGER

@<TRIPOS>ATOM
      1 O          13.0017    0.5615   10.0115 O.3     1  UNL1       -0.3798
      2 C          12.2242   -0.6119   10.2451 C.3     1  UNL1        0.0477
      3 H          12.2910   -1.2776    9.3757 H       1  UNL1        0.0560
      4 H          11.1913   -0.3050   10.4044 H       1  UNL1        0.0560
      5 C          14.3619    0.1898   10.2561 C.3     1  UNL1        0.0477
      6 H          14.8748    1.0709   10.6445 H       1  UNL1        0.0560
      7 H          14.8321   -0.1049    9.3100 H       1  UNL1        0.0560
      8 C          12.8579   -1.2636   11.4707 C.3     1  UNL1       -0.0274
      9 H          12.6287   -2.3240   11.5369 H       1  UNL1        0.0288
     10 H          12.4996   -0.7687   12.3730 H       1  UNL1        0.0288
     11 C          14.3491   -0.9916   11.2455 C.3     1  UNL1       -0.0274
     12 H          14.8627   -0.7474   12.1731 H       1  UNL1        0.0288
     13 H          14.8388   -1.8591   10.8056 H       1  UNL1        0.0288
@<TRIPOS>BOND
     1     7     5    1
     2     3     2    1
     3     1     2    1
     4     1     5    1
     5     2     4    1
     6     2     8    1
     7     5     6    1
     8     5    11    1
     9    13    11    1
    10    11     8    1
    11    11    12    1
    12     8     9    1
    13     8    10    1
