@<TRIPOS>MOLECULE
1
 9 9 0 0 0
SMALL
GASTEIGER

@<TRIPOS>ATOM
      1 O          -1.7156    2.0879    1.6193 O.2     1  UNL1       -0.4710
      2 C          -1.7342    1.3764    0.4607 C.ar    1  UNL1        0.0917
      3 H          -0.9289    0.6821    0.2926 H       1  UNL1        0.1029
      4 C          -2.8101    1.7201   -0.2894 C.ar    1  UNL1       -0.0239
      5 H          -3.0809    1.3268   -1.2476 H       1  UNL1        0.0649
      6 C          -3.5098    2.7109    0.4494 C.ar    1  UNL1       -0.0239
      7 H          -4.4115    3.2082    0.1559 H       1  UNL1        0.0649
      8 C          -2.8076    2.8974    1.5942 C.ar    1  UNL1        0.0917
      9 H          -2.9433    3.5573    2.4330 H       1  UNL1        0.1029
@<TRIPOS>BOND
     1     5     4    1
     2     4     6   ar
     3     4     2   ar
     4     7     6    1
     5     3     2    1
     6     6     8   ar
     7     2     1   ar
     8     8     1   ar
     9     8     9    1
