@<TRIPOS>MOLECULE
1
 12 12 0 0 0
SMALL
GASTEIGER

@<TRIPOS>ATOM
      1 O          11.4307   14.0277    7.0927 O.3     1  UNL1       -0.2879
      2 C          10.6985   14.9075    6.4196 C.ar    1  UNL1        0.1790
      3 C          10.0854   15.9855    7.0742 C.ar    1  UNL1       -0.0149
      4 H          10.2000   16.0828    8.1455 H       1  UNL1        0.0656
      5 C           9.3259   16.8916    6.3602 C.ar    1  UNL1       -0.0581
      6 H           8.8578   17.7148    6.8799 H       1  UNL1        0.0619
      7 C           9.1608   16.7543    4.9913 C.ar    1  UNL1       -0.0615
      8 H           8.5683   17.4684    4.4398 H       1  UNL1        0.0618
      9 C           9.7572   15.6890    4.3376 C.ar    1  UNL1       -0.0581
     10 H           9.6299   15.5693    3.2714 H       1  UNL1        0.0619
     11 C          10.5163   14.7707    5.0364 C.ar    1  UNL1       -0.0149
     12 H          10.9749   13.9357    4.5290 H       1  UNL1        0.0656
@<TRIPOS>BOND
     1    10     9    1
     2     9     7   ar
     3     9    11   ar
     4     8     7    1
     5    12    11    1
     6     7     5   ar
     7    11     2   ar
     8     5     6    1
     9     5     3   ar
    10     2     3   ar
    11     2     1    1
    12     3     4    1
