@<TRIPOS>MOLECULE
1
 18 18 0 0 0
SMALL
GASTEIGER

@<TRIPOS>ATOM
      1 O           2.4287   18.8262   11.8728 O.3     1  UNL1       -0.2879
      2 O           5.9961   21.4124   16.4359 O.2     1  UNL1       -0.2450
      3 O           4.5022   23.0342   16.0274 O.3     1  UNL1       -0.4645
      4 C           3.0406   19.5300   12.8070 C.ar    1  UNL1        0.1790
      5 C           4.1830   19.0358   13.4618 C.ar    1  UNL1       -0.0142
      6 H           4.5723   18.0672   13.1780 H       1  UNL1        0.0656
      7 C           4.8091   19.7891   14.4282 C.ar    1  UNL1       -0.0442
      8 H           5.6876   19.4166   14.9335 H       1  UNL1        0.0627
      9 C           4.3270   21.0512   14.7785 C.ar    1  UNL1        0.0592
     10 C           3.1984   21.5501   14.1292 C.ar    1  UNL1       -0.0442
     11 H           2.8238   22.5269   14.3925 H       1  UNL1        0.0627
     12 C           2.5647   20.8055   13.1604 C.ar    1  UNL1       -0.0142
     13 H           1.6944   21.1926   12.6532 H       1  UNL1        0.0656
     14 C           5.0370   21.8150   15.8216 C.2     1  UNL1        0.3389
     15 C           5.1417   23.8249   17.0155 C.3     1  UNL1        0.0820
     16 H           4.6225   24.7801   17.0249 H       1  UNL1        0.0661
     17 H           6.1964   23.9629   16.7680 H       1  UNL1        0.0661
     18 H           5.0733   23.3415   17.9926 H       1  UNL1        0.0661
@<TRIPOS>BOND
     1     1     4    1
     2    13    12    1
     3     4    12   ar
     4     4     5   ar
     5    12    10   ar
     6     6     5    1
     7     5     7   ar
     8    10    11    1
     9    10     9   ar
    10     7     9   ar
    11     7     8    1
    12     9    14    1
    13    14     3    1
    14    14     2    2
    15     3    15    1
    16    17    15    1
    17    15    16    1
    18    15    18    1
