@<TRIPOS>MOLECULE
1
 16 16 0 0 0
SMALL
GASTEIGER

@<TRIPOS>ATOM
      1 O          -1.0541    2.3854   14.4922 O.3     1  UNL1       -0.2879
      2 O           1.0121   -1.6166   11.3487 O.3     1  UNL1       -0.4951
      3 C          -0.5411    1.4219   13.7466 C.ar    1  UNL1        0.1792
      4 C           0.8435    1.2180   13.7000 C.ar    1  UNL1       -0.0115
      5 H           1.4889    1.8581   14.2909 H       1  UNL1        0.0657
      6 C           1.3949    0.2202   12.9155 C.ar    1  UNL1       -0.0163
      7 H           2.4670    0.1006   12.9082 H       1  UNL1        0.0655
      8 C           0.5763   -0.6073   12.1548 C.ar    1  UNL1        0.1203
      9 C          -0.8062   -0.4130   12.1991 C.ar    1  UNL1       -0.0163
     10 H          -1.4318   -1.0602   11.6056 H       1  UNL1        0.0655
     11 C          -1.3577    0.5790   12.9759 C.ar    1  UNL1       -0.0115
     12 H          -2.4266    0.7238   12.9980 H       1  UNL1        0.0657
     13 C           2.3953   -1.8523   11.2560 C.3     1  UNL1        0.0788
     14 H           2.5061   -2.6865   10.5652 H       1  UNL1        0.0660
     15 H           2.8232   -2.1279   12.2255 H       1  UNL1        0.0660
     16 H           2.9263   -0.9814   10.8581 H       1  UNL1        0.0660
@<TRIPOS>BOND
     1    14    13    1
     2    16    13    1
     3    13     2    1
     4    13    15    1
     5     2     8    1
     6    10     9    1
     7     8     9   ar
     8     8     6   ar
     9     9    11   ar
    10     7     6    1
    11     6     4   ar
    12    11    12    1
    13    11     3   ar
    14     4     3   ar
    15     4     5    1
    16     3     1    1
