@<TRIPOS>MOLECULE
1
 36 36 0 0 0
SMALL
GASTEIGER

@<TRIPOS>ATOM
      1 O           2.6908    3.1244    2.3287 O.3     1  UNL1       -0.2873
      2 C           3.4247    3.7218    1.3937 C.ar    1  UNL1        0.1863
      3 C           3.4725    3.1862    0.0760 C.ar    1  UNL1        0.0049
      4 C           2.7372    1.8923   -0.2752 C.3     1  UNL1       -0.0090
      5 C           1.2268    2.0792   -0.0807 C.3     1  UNL1       -0.0559
      6 C           2.9521    1.4527   -1.7295 C.3     1  UNL1       -0.0559
      7 C           3.2439    0.7569    0.6240 C.3     1  UNL1       -0.0559
      8 C           4.2141    3.8470   -0.8884 C.ar    1  UNL1       -0.0544
      9 C           4.9196    4.9972   -0.5969 C.ar    1  UNL1       -0.0610
     10 C           4.9149    5.4912    0.6915 C.ar    1  UNL1       -0.0544
     11 C           4.1941    4.8771    1.7030 C.ar    1  UNL1        0.0049
     12 C           4.2310    5.4513    3.1212 C.3     1  UNL1       -0.0090
     13 C           2.8462    6.0107    3.4798 C.3     1  UNL1       -0.0559
     14 C           4.6587    4.3687    4.1237 C.3     1  UNL1       -0.0559
     15 C           5.2296    6.6082    3.2740 C.3     1  UNL1       -0.0559
     16 H           1.0034    2.3142    0.9673 H       1  UNL1        0.0238
     17 H           0.8677    2.8913   -0.7118 H       1  UNL1        0.0238
     18 H           0.6949    1.1682   -0.3528 H       1  UNL1        0.0238
     19 H           2.4198    0.5183   -1.9000 H       1  UNL1        0.0238
     20 H           2.5649    2.1894   -2.4296 H       1  UNL1        0.0238
     21 H           4.0050    1.2793   -1.9370 H       1  UNL1        0.0238
     22 H           3.0709    0.9910    1.6720 H       1  UNL1        0.0238
     23 H           2.7309   -0.1733    0.3850 H       1  UNL1        0.0238
     24 H           4.3119    0.6124    0.4739 H       1  UNL1        0.0238
     25 H           4.2556    3.4713   -1.8968 H       1  UNL1        0.0622
     26 H           5.4830    5.4992   -1.3693 H       1  UNL1        0.0618
     27 H           5.4928    6.3770    0.8939 H       1  UNL1        0.0622
     28 H           2.0845    5.2148    3.4730 H       1  UNL1        0.0238
     29 H           2.5577    6.7681    2.7523 H       1  UNL1        0.0238
     30 H           2.8647    6.4698    4.4682 H       1  UNL1        0.0238
     31 H           4.6903    4.7777    5.1327 H       1  UNL1        0.0238
     32 H           3.9720    3.5189    4.1132 H       1  UNL1        0.0238
     33 H           5.6525    4.0062    3.8672 H       1  UNL1        0.0238
     34 H           4.9455    7.4642    2.6670 H       1  UNL1        0.0238
     35 H           5.2450    6.9295    4.3142 H       1  UNL1        0.0238
     36 H           6.2354    6.2964    3.0046 H       1  UNL1        0.0238
@<TRIPOS>BOND
     1    20     6    1
     2    21     6    1
     3    19     6    1
     4    25     8    1
     5     6     4    1
     6    26     9    1
     7     8     9   ar
     8     8     3   ar
     9    17     5    1
    10     9    10   ar
    11    18     5    1
    12     4     5    1
    13     4     3    1
    14     4     7    1
    15     5    16    1
    16     3     2   ar
    17    23     7    1
    18    24     7    1
    19     7    22    1
    20    10    27    1
    21    10    11   ar
    22     2    11   ar
    23     2     1    1
    24    11    12    1
    25    34    15    1
    26    29    13    1
    27    36    15    1
    28    12    15    1
    29    12    13    1
    30    12    14    1
    31    15    35    1
    32    28    13    1
    33    13    30    1
    34    33    14    1
    35    32    14    1
    36    14    31    1
