@<TRIPOS>MOLECULE
1
 12 12 0 0 0
SMALL
GASTEIGER

@<TRIPOS>ATOM
      1 O           9.3111   17.1836   -0.8629 O.3     1  UNL1       -0.2879
      2 C          10.3820   16.4309   -0.6303 C.ar    1  UNL1        0.1790
      3 C          10.6606   15.9107    0.6417 C.ar    1  UNL1       -0.0149
      4 H           9.9788   16.1381    1.4508 H       1  UNL1        0.0656
      5 C          11.7811   15.1266    0.8385 C.ar    1  UNL1       -0.0581
      6 H          11.9864   14.7304    1.8212 H       1  UNL1        0.0619
      7 C          12.6442   14.8380   -0.2082 C.ar    1  UNL1       -0.0615
      8 H          13.5171   14.2253   -0.0420 H       1  UNL1        0.0618
      9 C          12.3740   15.3381   -1.4700 C.ar    1  UNL1       -0.0581
     10 H          13.0357   15.1152   -2.2948 H       1  UNL1        0.0619
     11 C          11.2570   16.1225   -1.6840 C.ar    1  UNL1       -0.0149
     12 H          11.0434   16.5064   -2.6733 H       1  UNL1        0.0656
@<TRIPOS>BOND
     1    12    11    1
     2    10     9    1
     3    11     9   ar
     4    11     2   ar
     5     9     7   ar
     6     1     2    1
     7     2     3   ar
     8     7     8    1
     9     7     5   ar
    10     3     5   ar
    11     3     4    1
    12     5     6    1
