@<TRIPOS>MOLECULE
1
 13 13 0 0 0
SMALL
GASTEIGER

@<TRIPOS>ATOM
      1 O         -13.6182   16.1315   14.5290 O.3     1  UNL1       -0.3798
      2 C         -13.0389   16.2861   15.8209 C.3     1  UNL1        0.0477
      3 H         -13.6864   16.9314   16.4334 H       1  UNL1        0.0560
      4 H         -12.0628   16.7567   15.6950 H       1  UNL1        0.0560
      5 C         -12.9618   14.8774   16.4329 C.3     1  UNL1       -0.0274
      6 H         -11.9528   14.4779   16.3600 H       1  UNL1        0.0288
      7 H         -13.2508   14.8938   17.4823 H       1  UNL1        0.0288
      8 C         -13.9397   14.0552   15.5784 C.3     1  UNL1       -0.0274
      9 H         -14.6726   13.5216   16.1790 H       1  UNL1        0.0288
     10 H         -13.4001   13.3370   14.9632 H       1  UNL1        0.0288
     11 C         -14.6009   15.1099   14.6861 C.3     1  UNL1        0.0477
     12 H         -14.8581   14.7408   13.6933 H       1  UNL1        0.0560
     13 H         -15.4923   15.5314   15.1736 H       1  UNL1        0.0560
@<TRIPOS>BOND
     1    12    11    1
     2     1    11    1
     3     1     2    1
     4    11    13    1
     5    11     8    1
     6    10     8    1
     7     8     9    1
     8     8     5    1
     9     4     2    1
    10     2     5    1
    11     2     3    1
    12     6     5    1
    13     5     7    1
