@<TRIPOS>MOLECULE
5
 13 13 0 0 0
SMALL
GASTEIGER

@<TRIPOS>ATOM
      1 C           0.4036    6.5584    8.4117 C.3     1  UNL1        0.0477
      2 C           0.5967    5.0877    8.7637 C.3     1  UNL1       -0.0274
      3 C           1.7768    4.7197    7.8697 C.3     1  UNL1       -0.0274
      4 C           2.6179    5.9923    7.9313 C.3     1  UNL1        0.0477
      5 O           1.7107    7.0848    8.1353 O.3     1  UNL1       -0.3798
      6 H          -0.0353    7.1418    9.2218 H       1  UNL1        0.0560
      7 H          -0.2147    6.6686    7.5145 H       1  UNL1        0.0560
      8 H           0.8688    4.9793    9.8142 H       1  UNL1        0.0288
      9 H          -0.2935    4.4968    8.5645 H       1  UNL1        0.0288
     10 H           2.3254    3.8482    8.2176 H       1  UNL1        0.0288
     11 H           1.4350    4.5391    6.8503 H       1  UNL1        0.0288
     12 H           3.3168    5.9603    8.7768 H       1  UNL1        0.0560
     13 H           3.1821    6.1686    7.0122 H       1  UNL1        0.0560
@<TRIPOS>BOND
     1    11     3    1
     2    13     4    1
     3     7     1    1
     4     3     4    1
     5     3    10    1
     6     3     2    1
     7     4     5    1
     8     4    12    1
     9     5     1    1
    10     1     2    1
    11     1     6    1
    12     9     2    1
    13     2     8    1
