@<TRIPOS>MOLECULE
1
 61 65 0 0 0
SMALL
GASTEIGER

@<TRIPOS>ATOM
      1 O           6.1163    4.2476    2.4322 O.3     1  UNL1       -0.2170
      2 C           6.4368    5.5736    2.3030 C.3     1  UNL1        0.1586
      3 C           7.2832    5.9409    3.5797 C.3     1  UNL1        0.0162
      4 H           8.1002    5.2101    3.6150 H       1  UNL1        0.0354
      5 H           6.6440    5.7566    4.4484 H       1  UNL1        0.0354
      6 P           8.0301    7.5823    3.8108 P.3     1  UNL1       -0.0391
      7 C           5.1340    6.3597    2.2205 C.ar    1  UNL1       -0.0080
      8 C           4.3343    6.1585    1.0972 C.ar    1  UNL1       -0.0554
      9 H           4.6990    5.5250    0.3032 H       1  UNL1        0.0621
     10 C           3.0845    6.7380    1.0013 C.ar    1  UNL1       -0.0614
     11 H           2.4818    6.5684    0.1212 H       1  UNL1        0.0618
     12 C           2.5992    7.5212    2.0357 C.ar    1  UNL1       -0.0617
     13 H           1.6184    7.9679    1.9678 H       1  UNL1        0.0618
     14 C           3.3726    7.7083    3.1658 C.ar    1  UNL1       -0.0614
     15 H           2.9973    8.2963    3.9909 H       1  UNL1        0.0618
     16 C           4.6291    7.1297    3.2600 C.ar    1  UNL1       -0.0554
     17 H           5.1900    7.2783    4.1734 H       1  UNL1        0.0621
     18 C           7.3422    5.7857    1.0849 C.ar    1  UNL1       -0.0080
     19 C           7.1580    6.7909    0.1451 C.ar    1  UNL1       -0.0554
     20 H           6.3426    7.4910    0.2494 H       1  UNL1        0.0621
     21 C           8.0111    6.9003   -0.9409 C.ar    1  UNL1       -0.0614
     22 H           7.8509    7.6866   -1.6645 H       1  UNL1        0.0618
     23 C           9.0549    6.0075   -1.1060 C.ar    1  UNL1       -0.0617
     24 H           9.7143    6.0932   -1.9571 H       1  UNL1        0.0618
     25 C           9.2373    4.9924   -0.1812 C.ar    1  UNL1       -0.0614
     26 H          10.0386    4.2792   -0.3074 H       1  UNL1        0.0618
     27 C           8.3874    4.8833    0.9044 C.ar    1  UNL1       -0.0554
     28 H           8.5110    4.0736    1.6124 H       1  UNL1        0.0621
     29 C           7.3862    8.4163    5.2848 C.ar    1  UNL1       -0.0190
     30 C           6.9529    7.6722    6.3791 C.ar    1  UNL1       -0.0539
     31 H           6.9621    6.5929    6.3665 H       1  UNL1        0.0624
     32 C           6.4893    8.3208    7.5103 C.ar    1  UNL1       -0.0612
     33 H           6.1384    7.7329    8.3432 H       1  UNL1        0.0618
     34 C           6.4718    9.7050    7.5623 C.ar    1  UNL1       -0.0617
     35 H           6.1054   10.2081    8.4439 H       1  UNL1        0.0618
     36 C           6.9281   10.4471    6.4835 C.ar    1  UNL1       -0.0612
     37 H           6.9250   11.5259    6.5260 H       1  UNL1        0.0618
     38 C           7.3868    9.8091    5.3457 C.ar    1  UNL1       -0.0539
     39 H           7.7426   10.3875    4.5045 H       1  UNL1        0.0624
     40 C           7.8557    8.7398    2.4235 C.ar    1  UNL1       -0.0190
     41 C           6.6473    9.4077    2.2372 C.ar    1  UNL1       -0.0539
     42 H           5.8189    9.2252    2.9049 H       1  UNL1        0.0624
     43 C           6.5062   10.2947    1.1863 C.ar    1  UNL1       -0.0612
     44 H           5.5650   10.8026    1.0407 H       1  UNL1        0.0618
     45 C           7.5659   10.5286    0.3241 C.ar    1  UNL1       -0.0617
     46 H           7.4513   11.2201   -0.4968 H       1  UNL1        0.0618
     47 C           8.7731    9.8788    0.5195 C.ar    1  UNL1       -0.0612
     48 H           9.6026   10.0638   -0.1458 H       1  UNL1        0.0618
     49 C           8.9229    8.9869    1.5661 C.ar    1  UNL1       -0.0539
     50 H           9.8673    8.4841    1.7125 H       1  UNL1        0.0624
     51 C           9.8045    7.3339    4.0653 C.ar    1  UNL1       -0.0190
     52 C          10.4641    7.9100    5.1445 C.ar    1  UNL1       -0.0539
     53 H           9.9206    8.5313    5.8416 H       1  UNL1        0.0624
     54 C          11.8145    7.6693    5.3291 C.ar    1  UNL1       -0.0612
     55 H          12.3248    8.1074    6.1733 H       1  UNL1        0.0618
     56 C          12.5069    6.8632    4.4409 C.ar    1  UNL1       -0.0617
     57 H          13.5580    6.6720    4.5935 H       1  UNL1        0.0618
     58 C          11.8509    6.2937    3.3600 C.ar    1  UNL1       -0.0612
     59 H          12.3888    5.6611    2.6707 H       1  UNL1        0.0618
     60 C          10.5010    6.5222    3.1703 C.ar    1  UNL1       -0.0539
     61 H           9.9813    6.0658    2.3379 H       1  UNL1        0.0624
@<TRIPOS>BOND
     1    24    23    1
     2    22    21    1
     3    23    21   ar
     4    23    25   ar
     5    21    19   ar
     6    46    45    1
     7    26    25    1
     8    25    27   ar
     9    48    47    1
    10    11    10    1
    11    19    20    1
    12    19    18   ar
    13     9     8    1
    14    45    47   ar
    15    45    43   ar
    16    47    49   ar
    17    27    18   ar
    18    27    28    1
    19    10     8   ar
    20    10    12   ar
    21    44    43    1
    22    18     2    1
    23     8     7   ar
    24    43    41   ar
    25    49    50    1
    26    49    40   ar
    27    13    12    1
    28    12    14   ar
    29     7     2    1
    30     7    16   ar
    31    41    40   ar
    32    41    42    1
    33     2     1    1
    34     2     3    1
    35    61    60    1
    36    40     6    1
    37    59    58    1
    38    14    16   ar
    39    14    15    1
    40    60    58   ar
    41    60    51   ar
    42    16    17    1
    43    58    56   ar
    44     3     4    1
    45     3     6    1
    46     3     5    1
    47     6    51    1
    48     6    29    1
    49    51    52   ar
    50    56    57    1
    51    56    54   ar
    52    39    38    1
    53    52    54   ar
    54    52    53    1
    55    29    38   ar
    56    29    30   ar
    57    54    55    1
    58    38    36   ar
    59    31    30    1
    60    30    32   ar
    61    36    37    1
    62    36    34   ar
    63    32    34   ar
    64    32    33    1
    65    34    35    1
