@<TRIPOS>MOLECULE
6
 53 52 0 0 0
SMALL
GASTEIGER

@<TRIPOS>ATOM
      1 SI          8.8753    8.7551   18.1146 Si      1  UNL1        0.0000
      2 H           7.6015    8.0345   17.8623 H       1  UNL1        0.0000
      3 SI         10.8680    9.6333   20.4236 Si      1  UNL1        0.0000
      4 SI          7.8851    8.6883   21.0665 Si      1  UNL1        0.0000
      5 SI         10.0102    6.6176   19.8987 Si      1  UNL1        0.0000
      6 O           9.9923    8.2996   17.0967 O.3     1  UNL1        0.0000
      7 C           8.4443   10.5861   17.6293 C.3     1  UNL1        0.0000
      8 H           8.3825   11.2323   18.5048 H       1  UNL1        0.0000
      9 C           9.5335   11.1219   16.7262 C.3     1  UNL1        0.0000
     10 H           9.7584   10.3443   15.9276 H       1  UNL1        0.0000
     11 H          10.4518   11.3039   17.2818 H       1  UNL1        0.0000
     12 H           9.2343   12.0365   16.2085 H       1  UNL1        0.0000
     13 C           7.1102   10.6360   16.8995 C.3     1  UNL1        0.0000
     14 H           6.8765   11.6459   16.5598 H       1  UNL1        0.0000
     15 H           6.3027   10.2980   17.5423 H       1  UNL1        0.0000
     16 H           7.1435    9.9777   16.0280 H       1  UNL1        0.0000
     17 C           9.4253    8.4598   19.9312 C.3     1  UNL1        0.0000
     18 C          12.1605    9.8553   19.0222 C.3     1  UNL1        0.0000
     19 H          12.3969   10.9029   18.8532 H       1  UNL1        0.0000
     20 H          11.7685    9.4379   18.1027 H       1  UNL1        0.0000
     21 H          13.0917    9.3463   19.2505 H       1  UNL1        0.0000
     22 C          10.3193   11.4161   20.8621 C.3     1  UNL1        0.0000
     23 H           9.6403   11.4252   21.7065 H       1  UNL1        0.0000
     24 H           9.8277   11.9192   20.0365 H       1  UNL1        0.0000
     25 H          11.1823   12.0165   21.1371 H       1  UNL1        0.0000
     26 C          11.8545    9.0416   21.9509 C.3     1  UNL1        0.0000
     27 H          11.2192    8.9528   22.8234 H       1  UNL1        0.0000
     28 H          12.6410    9.7504   22.1939 H       1  UNL1        0.0000
     29 H          12.3225    8.0778   21.7866 H       1  UNL1        0.0000
     30 C           8.3457    8.7497   22.9217 C.3     1  UNL1        0.0000
     31 H           7.4483    8.7449   23.5331 H       1  UNL1        0.0000
     32 H           8.8996    9.6486   23.1686 H       1  UNL1        0.0000
     33 H           8.9459    7.8995   23.2207 H       1  UNL1        0.0000
     34 C           6.8840   10.2858   20.7444 C.3     1  UNL1        0.0000
     35 H           6.3883   10.2490   19.7819 H       1  UNL1        0.0000
     36 H           7.4954   11.1793   20.7683 H       1  UNL1        0.0000
     37 H           6.1137   10.4040   21.5016 H       1  UNL1        0.0000
     38 C           6.5993    7.2913   20.8650 C.3     1  UNL1        0.0000
     39 H           6.9854    6.3300   21.1828 H       1  UNL1        0.0000
     40 H           6.2849    7.1975   19.8319 H       1  UNL1        0.0000
     41 H           5.7130    7.4979   21.4580 H       1  UNL1        0.0000
     42 C          11.7544    6.4369   19.1449 C.3     1  UNL1        0.0000
     43 H          12.0414    5.3923   19.0625 H       1  UNL1        0.0000
     44 H          12.5245    6.9464   19.7117 H       1  UNL1        0.0000
     45 H          11.7326    6.8565   18.1481 H       1  UNL1        0.0000
     46 C          10.0699    5.8195   21.6321 C.3     1  UNL1        0.0000
     47 H          10.4961    4.8238   21.5688 H       1  UNL1        0.0000
     48 H           9.0816    5.7222   22.0636 H       1  UNL1        0.0000
     49 H          10.6780    6.3888   22.3233 H       1  UNL1        0.0000
     50 C           8.9330    5.4860   18.8036 C.3     1  UNL1        0.0000
     51 H           9.0243    5.7845   17.7648 H       1  UNL1        0.0000
     52 H           7.8831    5.5279   19.0634 H       1  UNL1        0.0000
     53 H           9.2479    4.4490   18.8827 H       1  UNL1        0.0000
@<TRIPOS>BOND
     1    10     9    1
     2    16    13    1
     3    12     9    1
     4    14    13    1
     5     9    11    1
     6     9     7    1
     7    13    15    1
     8    13     7    1
     9     6     1    1
    10     7     1    1
    11     7     8    1
    12    51    50    1
    13     2     1    1
    14    20    18    1
    15     1    17    1
    16    45    42    1
    17    50    53    1
    18    50    52    1
    19    50     5    1
    20    19    18    1
    21    18    21    1
    22    18     3    1
    23    43    42    1
    24    42    44    1
    25    42     5    1
    26    35    34    1
    27    40    38    1
    28     5    17    1
    29     5    46    1
    30    17     3    1
    31    17     4    1
    32    24    22    1
    33     3    22    1
    34     3    26    1
    35    34    36    1
    36    34     4    1
    37    34    37    1
    38    22    25    1
    39    22    23    1
    40    38     4    1
    41    38    39    1
    42    38    41    1
    43     4    30    1
    44    47    46    1
    45    46    48    1
    46    46    49    1
    47    29    26    1
    48    26    28    1
    49    26    27    1
    50    30    32    1
    51    30    33    1
    52    30    31    1
