@<TRIPOS>MOLECULE
1
 8 7 0 0 0
SMALL
GASTEIGER

@<TRIPOS>ATOM
      1 O           6.4653    0.0613    8.4409 O.3     1  UNL1       -0.0619
      2 S           7.3903    0.0353    9.5798 S.3     1  UNL1        0.1076
      3 O           7.4416    1.2656   10.3073 O.3     1  UNL1       -0.0619
      4 O           7.3089   -1.1649   10.3545 O.3     1  UNL1       -0.0619
      5 C           9.0032   -0.0757    8.6327 C.3     1  UNL1        0.5278
      6 F           9.1138    0.9829    7.8267 F       1  UNL1       -0.1499
      7 F          10.0912   -0.1285    9.3992 F       1  UNL1       -0.1499
      8 F           8.9800   -1.1717    7.8695 F       1  UNL1       -0.1499
@<TRIPOS>BOND
     1     6     5    1
     2     8     5    1
     3     1     2    1
     4     5     7    1
     5     5     2    1
     6     2     3    1
     7     2     4    1
