@<TRIPOS>MOLECULE
1
 13 13 0 0 0
SMALL
GASTEIGER

@<TRIPOS>ATOM
      1 O          -0.6046    3.8853    5.2181 O.3     1  UNL1       -0.3798
      2 C          -1.3093    3.0672    6.1746 C.3     1  UNL1        0.0477
      3 C          -2.3976    3.9522    6.7740 C.3     1  UNL1       -0.0274
      4 C          -1.7375    5.3278    6.7251 C.3     1  UNL1       -0.0274
      5 C          -0.9832    5.2578    5.4003 C.3     1  UNL1        0.0477
      6 H          -0.5941    2.7389    6.9397 H       1  UNL1        0.0560
      7 H          -1.6876    2.1879    5.6436 H       1  UNL1        0.0560
      8 H          -2.6685    3.6463    7.7813 H       1  UNL1        0.0288
      9 H          -3.2920    3.9410    6.1500 H       1  UNL1        0.0288
     10 H          -1.0405    5.4426    7.5554 H       1  UNL1        0.0288
     11 H          -2.4522    6.1467    6.7490 H       1  UNL1        0.0288
     12 H          -0.0802    5.8745    5.3895 H       1  UNL1        0.0560
     13 H          -1.6313    5.5596    4.5666 H       1  UNL1        0.0560
@<TRIPOS>BOND
     1    13     5    1
     2     1     5    1
     3     1     2    1
     4    12     5    1
     5     5     4    1
     6     7     2    1
     7     9     3    1
     8     2     3    1
     9     2     6    1
    10     4    11    1
    11     4     3    1
    12     4    10    1
    13     3     8    1
