@<TRIPOS>MOLECULE
1
 13 13 0 0 0
SMALL
GASTEIGER

@<TRIPOS>ATOM
      1 O          -0.8241    3.9472    4.3949 O.3     1  UNL1       -0.3798
      2 C          -0.5943    4.9372    5.4212 C.3     1  UNL1        0.0477
      3 H          -1.0748    5.8730    5.1183 H       1  UNL1        0.0560
      4 H           0.4885    5.0885    5.4935 H       1  UNL1        0.0560
      5 C          -1.1723    4.3742    6.7192 C.3     1  UNL1       -0.0274
      6 H          -2.2050    4.6986    6.8527 H       1  UNL1        0.0288
      7 H          -0.5933    4.6789    7.5871 H       1  UNL1        0.0288
      8 C          -1.1204    2.8693    6.4699 C.3     1  UNL1       -0.0274
      9 H          -1.8241    2.3090    7.0803 H       1  UNL1        0.0288
     10 H          -0.1131    2.4938    6.6465 H       1  UNL1        0.0288
     11 C          -1.4550    2.8035    4.9860 C.3     1  UNL1        0.0477
     12 H          -1.0757    1.9122    4.4829 H       1  UNL1        0.0560
     13 H          -2.5413    2.8734    4.8342 H       1  UNL1        0.0560
@<TRIPOS>BOND
     1     1    11    1
     2     1     2    1
     3    12    11    1
     4    13    11    1
     5    11     8    1
     6     3     2    1
     7     2     4    1
     8     2     5    1
     9     8    10    1
    10     8     5    1
    11     8     9    1
    12     5     6    1
    13     5     7    1
