@<TRIPOS>MOLECULE
2
 41 40 0 0 0
SMALL
GASTEIGER

@<TRIPOS>ATOM
      1 SI         -2.9875    6.7361    4.8760 Si      1  UNL1        0.0000
      2 O          -2.2832    5.2859    4.8728 O.3     1  UNL1        0.0000
      3 C          -2.5652    7.5522    3.1398 C.3     1  UNL1        0.0000
      4 C          -4.9300    6.4556    5.0417 C.3     1  UNL1        0.0000
      5 C          -2.2562    7.7522    6.3883 C.3     1  UNL1        0.0000
      6 C          -2.6818    6.4869    2.0428 C.3     1  UNL1        0.0000
      7 H          -2.2570    6.8552    1.1084 H       1  UNL1        0.0000
      8 H          -2.1416    5.5855    2.3376 H       1  UNL1        0.0000
      9 H          -3.7145    6.2191    1.8513 H       1  UNL1        0.0000
     10 C          -3.4557    8.7397    2.7705 C.3     1  UNL1        0.0000
     11 H          -3.1262    9.1709    1.8243 H       1  UNL1        0.0000
     12 H          -4.4947    8.4485    2.6560 H       1  UNL1        0.0000
     13 H          -3.4032    9.5151    3.5295 H       1  UNL1        0.0000
     14 C          -1.1204    8.0579    3.1184 C.3     1  UNL1        0.0000
     15 H          -0.8350    8.3473    2.1056 H       1  UNL1        0.0000
     16 H          -1.0048    8.9325    3.7517 H       1  UNL1        0.0000
     17 H          -0.4390    7.2865    3.4610 H       1  UNL1        0.0000
     18 C          -5.6884    7.7131    5.4685 C.3     1  UNL1        0.0000
     19 H          -6.7630    7.5264    5.4437 H       1  UNL1        0.0000
     20 H          -5.4291    8.0018    6.4826 H       1  UNL1        0.0000
     21 H          -5.4763    8.5471    4.8062 H       1  UNL1        0.0000
     22 C          -5.5411    5.9710    3.7224 C.3     1  UNL1        0.0000
     23 H          -6.5759    5.6631    3.8827 H       1  UNL1        0.0000
     24 H          -5.5494    6.7538    2.9708 H       1  UNL1        0.0000
     25 H          -4.9854    5.1193    3.3373 H       1  UNL1        0.0000
     26 C          -5.2213    5.3512    6.0605 C.3     1  UNL1        0.0000
     27 H          -6.2977    5.2126    6.1718 H       1  UNL1        0.0000
     28 H          -4.7935    4.4162    5.7086 H       1  UNL1        0.0000
     29 H          -4.8076    5.5716    7.0378 H       1  UNL1        0.0000
     30 C          -2.6319    9.2340    6.3351 C.3     1  UNL1        0.0000
     31 H          -2.2501    9.7449    7.2196 H       1  UNL1        0.0000
     32 H          -2.1986    9.7152    5.4630 H       1  UNL1        0.0000
     33 H          -3.7068    9.3759    6.3034 H       1  UNL1        0.0000
     34 C          -2.7688    7.1752    7.7124 C.3     1  UNL1        0.0000
     35 H          -2.2730    7.6653    8.5510 H       1  UNL1        0.0000
     36 H          -3.8375    7.3296    7.8271 H       1  UNL1        0.0000
     37 H          -2.5573    6.1106    7.7739 H       1  UNL1        0.0000
     38 C          -0.7269    7.6674    6.4487 C.3     1  UNL1        0.0000
     39 H          -0.3671    8.1526    7.3567 H       1  UNL1        0.0000
     40 H          -0.4013    6.6344    6.4705 H       1  UNL1        0.0000
     41 H          -0.2575    8.1573    5.6040 H       1  UNL1        0.0000
@<TRIPOS>BOND
     1     7     6    1
     2    11    10    1
     3     9     6    1
     4     6     8    1
     5     6     3    1
     6    15    14    1
     7    12    10    1
     8    10     3    1
     9    10    13    1
    10    24    22    1
    11    14     3    1
    12    14    17    1
    13    14    16    1
    14     3     1    1
    15    25    22    1
    16    22    23    1
    17    22     4    1
    18    21    18    1
    19     2     1    1
    20     1     4    1
    21     1     5    1
    22     4    18    1
    23     4    26    1
    24    19    18    1
    25    32    30    1
    26    18    20    1
    27    41    38    1
    28    28    26    1
    29    26    27    1
    30    26    29    1
    31    33    30    1
    32    30     5    1
    33    30    31    1
    34     5    38    1
    35     5    34    1
    36    38    40    1
    37    38    39    1
    38    34    37    1
    39    34    36    1
    40    34    35    1
