@<TRIPOS>MOLECULE
2
 41 40 0 0 0
SMALL
GASTEIGER

@<TRIPOS>ATOM
      1 SI         -4.0613    0.8993    3.6515 Si      1  UNL1        0.0000
      2 O          -2.9697    2.0174    4.1552 O.3     1  UNL1        0.0000
      3 C          -5.7773    1.1013    4.5818 C.3     1  UNL1        0.0000
      4 C          -3.2313   -0.8378    4.0345 C.3     1  UNL1        0.0000
      5 C          -4.2200    1.2962    1.7379 C.3     1  UNL1        0.0000
      6 C          -6.5556    2.3188    4.0720 C.3     1  UNL1        0.0000
      7 H          -7.4399    2.4750    4.6904 H       1  UNL1        0.0000
      8 H          -5.9457    3.2133    4.1260 H       1  UNL1        0.0000
      9 H          -6.8923    2.1791    3.0493 H       1  UNL1        0.0000
     10 C          -6.6661   -0.1286    4.3727 C.3     1  UNL1        0.0000
     11 H          -7.6514    0.0527    4.8018 H       1  UNL1        0.0000
     12 H          -6.7940   -0.3507    3.3178 H       1  UNL1        0.0000
     13 H          -6.2517   -1.0051    4.8603 H       1  UNL1        0.0000
     14 C          -5.5998    1.3097    6.0896 C.3     1  UNL1        0.0000
     15 H          -6.5771    1.3715    6.5687 H       1  UNL1        0.0000
     16 H          -5.0496    0.5021    6.5564 H       1  UNL1        0.0000
     17 H          -5.0740    2.2372    6.2848 H       1  UNL1        0.0000
     18 C          -3.8418   -1.9768    3.2145 C.3     1  UNL1        0.0000
     19 H          -3.3685   -2.9209    3.4834 H       1  UNL1        0.0000
     20 H          -4.9072   -2.0699    3.3983 H       1  UNL1        0.0000
     21 H          -3.6936   -1.8230    2.1499 H       1  UNL1        0.0000
     22 C          -3.3604   -1.2017    5.5169 C.3     1  UNL1        0.0000
     23 H          -2.8057   -2.1178    5.7214 H       1  UNL1        0.0000
     24 H          -2.9412   -0.4144    6.1367 H       1  UNL1        0.0000
     25 H          -4.3930   -1.3770    5.8006 H       1  UNL1        0.0000
     26 C          -1.7285   -0.7871    3.7443 C.3     1  UNL1        0.0000
     27 H          -1.2391   -1.6730    4.1478 H       1  UNL1        0.0000
     28 H          -1.5319   -0.7578    2.6795 H       1  UNL1        0.0000
     29 H          -1.2833    0.0892    4.2139 H       1  UNL1        0.0000
     30 C          -5.3897    0.5985    1.0423 C.3     1  UNL1        0.0000
     31 H          -5.3677    0.8144   -0.0259 H       1  UNL1        0.0000
     32 H          -5.3334   -0.4787    1.1702 H       1  UNL1        0.0000
     33 H          -6.3457    0.9378    1.4286 H       1  UNL1        0.0000
     34 C          -4.3536    2.8105    1.5331 C.3     1  UNL1        0.0000
     35 H          -4.2278    3.0605    0.4796 H       1  UNL1        0.0000
     36 H          -5.3271    3.1712    1.8462 H       1  UNL1        0.0000
     37 H          -3.5861    3.3380    2.1035 H       1  UNL1        0.0000
     38 C          -2.9320    0.8732    1.0283 C.3     1  UNL1        0.0000
     39 H          -2.9298    1.2353    0.0000 H       1  UNL1        0.0000
     40 H          -2.0762    1.2982    1.5452 H       1  UNL1        0.0000
     41 H          -2.8311   -0.2074    0.9974 H       1  UNL1        0.0000
@<TRIPOS>BOND
     1    31    30    1
     2    39    38    1
     3    35    34    1
     4    41    38    1
     5    38    40    1
     6    38     5    1
     7    30    32    1
     8    30    33    1
     9    30     5    1
    10    34     5    1
    11    34    36    1
    12    34    37    1
    13     5     1    1
    14    21    18    1
    15    28    26    1
    16     9     6    1
    17    18    20    1
    18    18    19    1
    19    18     4    1
    20    12    10    1
    21     1     4    1
    22     1     2    1
    23     1     3    1
    24    26     4    1
    25    26    27    1
    26    26    29    1
    27     4    22    1
    28     6     8    1
    29     6     3    1
    30     6     7    1
    31    10     3    1
    32    10    11    1
    33    10    13    1
    34     3    14    1
    35    22    23    1
    36    22    25    1
    37    22    24    1
    38    14    17    1
    39    14    16    1
    40    14    15    1
