@<TRIPOS>MOLECULE
2
 41 40 0 0 0
SMALL
GASTEIGER

@<TRIPOS>ATOM
      1 SI          1.2379    3.3003    2.6611 Si      1  UNL1        0.0000
      2 O          -0.1790    3.2774    3.4999 O.3     1  UNL1        0.0000
      3 C           1.8271    1.4320    2.6448 C.3     1  UNL1        0.0000
      4 C           2.5143    4.4606    3.5953 C.3     1  UNL1        0.0000
      5 C           0.8040    3.9920    0.8773 C.3     1  UNL1        0.0000
      6 C           1.6763    0.8196    4.0428 C.3     1  UNL1        0.0000
      7 H           1.7677   -0.2648    3.9910 H       1  UNL1        0.0000
      8 H           2.4417    1.1822    4.7181 H       1  UNL1        0.0000
      9 H           0.7025    1.0603    4.4676 H       1  UNL1        0.0000
     10 C           3.2776    1.2542    2.1927 C.3     1  UNL1        0.0000
     11 H           3.5201    0.1929    2.1404 H       1  UNL1        0.0000
     12 H           3.4395    1.6867    1.2102 H       1  UNL1        0.0000
     13 H           3.9708    1.7173    2.8875 H       1  UNL1        0.0000
     14 C           0.9447    0.6118    1.7008 C.3     1  UNL1        0.0000
     15 H           1.1692   -0.4499    1.8032 H       1  UNL1        0.0000
     16 H          -0.1004    0.7651    1.9447 H       1  UNL1        0.0000
     17 H           1.1102    0.8847    0.6632 H       1  UNL1        0.0000
     18 C           3.0499    3.7944    4.8680 C.3     1  UNL1        0.0000
     19 H           3.6591    4.5046    5.4271 H       1  UNL1        0.0000
     20 H           2.2391    3.4693    5.5100 H       1  UNL1        0.0000
     21 H           3.6789    2.9421    4.6302 H       1  UNL1        0.0000
     22 C           3.7331    4.8062    2.7335 C.3     1  UNL1        0.0000
     23 H           4.4234    5.4238    3.3076 H       1  UNL1        0.0000
     24 H           4.2613    3.9108    2.4208 H       1  UNL1        0.0000
     25 H           3.4541    5.3621    1.8445 H       1  UNL1        0.0000
     26 C           1.8348    5.7725    4.0120 C.3     1  UNL1        0.0000
     27 H           2.4067    6.2625    4.7992 H       1  UNL1        0.0000
     28 H           1.7697    6.4613    3.1767 H       1  UNL1        0.0000
     29 H           0.8310    5.5900    4.3865 H       1  UNL1        0.0000
     30 C           1.8529    3.6235   -0.1749 C.3     1  UNL1        0.0000
     31 H           1.5942    4.0808   -1.1300 H       1  UNL1        0.0000
     32 H           2.8382    3.9775    0.1125 H       1  UNL1        0.0000
     33 H           1.9082    2.5502   -0.3267 H       1  UNL1        0.0000
     34 C           0.6827    5.5191    0.8878 C.3     1  UNL1        0.0000
     35 H           0.2849    5.8651   -0.0669 H       1  UNL1        0.0000
     36 H           0.0128    5.8446    1.6744 H       1  UNL1        0.0000
     37 H           1.6485    5.9940    1.0276 H       1  UNL1        0.0000
     38 C          -0.5536    3.4460    0.4237 C.3     1  UNL1        0.0000
     39 H          -0.8851    3.9604   -0.4783 H       1  UNL1        0.0000
     40 H          -0.4967    2.3868    0.2004 H       1  UNL1        0.0000
     41 H          -1.3010    3.6001    1.2004 H       1  UNL1        0.0000
@<TRIPOS>BOND
     1    31    30    1
     2    39    38    1
     3    33    30    1
     4    30    32    1
     5    30     5    1
     6    35    34    1
     7    40    38    1
     8    38     5    1
     9    38    41    1
    10    17    14    1
    11     5    34    1
    12     5     1    1
    13    34    37    1
    14    34    36    1
    15    12    10    1
    16    14    15    1
    17    14    16    1
    18    14     3    1
    19    25    22    1
    20    11    10    1
    21    10     3    1
    22    10    13    1
    23    24    22    1
    24     3     1    1
    25     3     6    1
    26     1     2    1
    27     1     4    1
    28    22    23    1
    29    22     4    1
    30    28    26    1
    31     4    26    1
    32     4    18    1
    33     7     6    1
    34    26    29    1
    35    26    27    1
    36     6     9    1
    37     6     8    1
    38    21    18    1
    39    18    19    1
    40    18    20    1
