@<TRIPOS>MOLECULE
2
 35 37 0 0 0
SMALL
GASTEIGER

@<TRIPOS>ATOM
      1 SI          4.4492    9.0125    6.1632 Si      1  UNL1        0.0000
      2 O           4.6866    9.6906    4.7081 O.3     1  UNL1        0.0000
      3 C           5.4445    7.3912    6.1759 C.ar    1  UNL1        0.0000
      4 C           5.1791    6.4120    5.2222 C.ar    1  UNL1        0.0000
      5 C           5.9360    5.2569    5.1551 C.ar    1  UNL1        0.0000
      6 C           6.9697    5.0545    6.0535 C.ar    1  UNL1        0.0000
      7 C           7.2349    6.0091    7.0207 C.ar    1  UNL1        0.0000
      8 C           6.4799    7.1674    7.0778 C.ar    1  UNL1        0.0000
      9 C           2.5858    8.7123    6.3243 C.ar    1  UNL1        0.0000
     10 C           2.0520    7.8363    7.2645 C.ar    1  UNL1        0.0000
     11 C           0.6875    7.6215    7.3419 C.ar    1  UNL1        0.0000
     12 C          -0.1670    8.2821    6.4748 C.ar    1  UNL1        0.0000
     13 C           0.3492    9.1558    5.5314 C.ar    1  UNL1        0.0000
     14 C           1.7144    9.3693    5.4573 C.ar    1  UNL1        0.0000
     15 C           5.1515   10.2623    7.4095 C.ar    1  UNL1        0.0000
     16 C           6.2651   11.0170    7.0480 C.ar    1  UNL1        0.0000
     17 C           6.8064   11.9520    7.9105 C.ar    1  UNL1        0.0000
     18 C           6.2385   12.1479    9.1581 C.ar    1  UNL1        0.0000
     19 C           5.1330   11.4043    9.5354 C.ar    1  UNL1        0.0000
     20 C           4.5964   10.4700    8.6677 C.ar    1  UNL1        0.0000
     21 H           4.3688    6.5634    4.5239 H       1  UNL1        0.0000
     22 H           5.7190    4.5166    4.3987 H       1  UNL1        0.0000
     23 H           7.5663    4.1554    6.0014 H       1  UNL1        0.0000
     24 H           8.0367    5.8525    7.7283 H       1  UNL1        0.0000
     25 H           6.6956    7.9136    7.8302 H       1  UNL1        0.0000
     26 H           2.7186    7.3139    7.9362 H       1  UNL1        0.0000
     27 H           0.2884    6.9367    8.0766 H       1  UNL1        0.0000
     28 H          -1.2328    8.1138    6.5329 H       1  UNL1        0.0000
     29 H          -0.3144    9.6712    4.8518 H       1  UNL1        0.0000
     30 H           2.1217   10.0469    4.7137 H       1  UNL1        0.0000
     31 H           6.7078   10.8722    6.0707 H       1  UNL1        0.0000
     32 H           7.6679   12.5295    7.6066 H       1  UNL1        0.0000
     33 H           6.6550   12.8803    9.8341 H       1  UNL1        0.0000
     34 H           4.6870   11.5562   10.5080 H       1  UNL1        0.0000
     35 H           3.7310    9.8945    8.9640 H       1  UNL1        0.0000
@<TRIPOS>BOND
     1    22     5    1
     2    21     4    1
     3     2     1    1
     4    30    14    1
     5    29    13    1
     6     5     4   ar
     7     5     6   ar
     8     4     3   ar
     9    14    13   ar
    10    14     9   ar
    11    13    12   ar
    12    23     6    1
    13     6     7   ar
    14    31    16    1
    15     1     3    1
    16     1     9    1
    17     1    15    1
    18     3     8   ar
    19     9    10   ar
    20    12    28    1
    21    12    11   ar
    22     7     8   ar
    23     7    24    1
    24    16    15   ar
    25    16    17   ar
    26     8    25    1
    27    10    11   ar
    28    10    26    1
    29    11    27    1
    30    15    20   ar
    31    32    17    1
    32    17    18   ar
    33    20    35    1
    34    20    19   ar
    35    18    19   ar
    36    18    33    1
    37    19    34    1
