@<TRIPOS>MOLECULE
2
 35 37 0 0 0
SMALL
GASTEIGER

@<TRIPOS>ATOM
      1 SI          6.2938   13.2809    3.8815 Si      1  UNL1        0.0000
      2 O           5.8880   11.7470    3.5299 O.3     1  UNL1        0.0000
      3 C           8.1467   13.2281    4.2932 C.ar    1  UNL1        0.0000
      4 C           8.8459   12.0256    4.2186 C.ar    1  UNL1        0.0000
      5 C          10.1871   11.9528    4.5480 C.ar    1  UNL1        0.0000
      6 C          10.8606   13.0912    4.9575 C.ar    1  UNL1        0.0000
      7 C          10.1860   14.2989    5.0256 C.ar    1  UNL1        0.0000
      8 C           8.8443   14.3621    4.6955 C.ar    1  UNL1        0.0000
      9 C           5.2355   13.7294    5.4014 C.ar    1  UNL1        0.0000
     10 C           5.6213   14.6701    6.3514 C.ar    1  UNL1        0.0000
     11 C           4.8537   14.9000    7.4791 C.ar    1  UNL1        0.0000
     12 C           3.6857   14.1853    7.6804 C.ar    1  UNL1        0.0000
     13 C           3.2799   13.2538    6.7392 C.ar    1  UNL1        0.0000
     14 C           4.0449   13.0346    5.6076 C.ar    1  UNL1        0.0000
     15 C           5.8811   14.2880    2.3228 C.ar    1  UNL1        0.0000
     16 C           5.0271   13.7241    1.3751 C.ar    1  UNL1        0.0000
     17 C           4.7062   14.4073    0.2155 C.ar    1  UNL1        0.0000
     18 C           5.2312   15.6683   -0.0158 C.ar    1  UNL1        0.0000
     19 C           6.0771   16.2428    0.9181 C.ar    1  UNL1        0.0000
     20 C           6.3976   15.5566    2.0758 C.ar    1  UNL1        0.0000
     21 H           8.3269   11.1351    3.8875 H       1  UNL1        0.0000
     22 H          10.7082   11.0080    4.4834 H       1  UNL1        0.0000
     23 H          11.9078   13.0395    5.2183 H       1  UNL1        0.0000
     24 H          10.7085   15.1922    5.3373 H       1  UNL1        0.0000
     25 H           8.3301   15.3103    4.7480 H       1  UNL1        0.0000
     26 H           6.5385   15.2228    6.2135 H       1  UNL1        0.0000
     27 H           5.1717   15.6327    8.2071 H       1  UNL1        0.0000
     28 H           3.0933   14.3542    8.5678 H       1  UNL1        0.0000
     29 H           2.3677   12.6939    6.8879 H       1  UNL1        0.0000
     30 H           3.7207   12.3072    4.8675 H       1  UNL1        0.0000
     31 H           4.6099   12.7359    1.5573 H       1  UNL1        0.0000
     32 H           4.0434   13.9562   -0.5090 H       1  UNL1        0.0000
     33 H           4.9818   16.2027   -0.9212 H       1  UNL1        0.0000
     34 H           6.4881   17.2266    0.7422 H       1  UNL1        0.0000
     35 H           7.0613   16.0097    2.7970 H       1  UNL1        0.0000
@<TRIPOS>BOND
     1    33    18    1
     2    32    17    1
     3    18    17   ar
     4    18    19   ar
     5    17    16   ar
     6    34    19    1
     7    19    20   ar
     8    16    31    1
     9    16    15   ar
    10    20    15   ar
    11    20    35    1
    12    15     1    1
    13     2     1    1
    14     1     3    1
    15     1     9    1
    16    21     4    1
    17     4     3   ar
    18     4     5   ar
    19     3     8   ar
    20    22     5    1
    21     5     6   ar
    22     8    25    1
    23     8     7   ar
    24    30    14    1
    25     6     7   ar
    26     6    23    1
    27     7    24    1
    28     9    14   ar
    29     9    10   ar
    30    14    13   ar
    31    26    10    1
    32    10    11   ar
    33    13    29    1
    34    13    12   ar
    35    11    12   ar
    36    11    27    1
    37    12    28    1
