@<TRIPOS>MOLECULE
2
 35 37 0 0 0
SMALL
GASTEIGER

@<TRIPOS>ATOM
      1 SI          5.7418    8.0617    1.5053 Si      1  UNL1        0.0000
      2 O           5.4116    9.5197    2.1220 O.3     1  UNL1        0.0000
      3 C           7.2354    7.4094    2.4869 C.ar    1  UNL1        0.0000
      4 C           7.9535    6.2781    2.1150 C.ar    1  UNL1        0.0000
      5 C           9.0092    5.8195    2.8825 C.ar    1  UNL1        0.0000
      6 C           9.3713    6.4920    4.0373 C.ar    1  UNL1        0.0000
      7 C           8.6735    7.6250    4.4202 C.ar    1  UNL1        0.0000
      8 C           7.6145    8.0714    3.6522 C.ar    1  UNL1        0.0000
      9 C           6.0755    8.3487   -0.3383 C.ar    1  UNL1        0.0000
     10 C           6.0840    9.6491   -0.8389 C.ar    1  UNL1        0.0000
     11 C           6.3275    9.8936   -2.1782 C.ar    1  UNL1        0.0000
     12 C           6.5664    8.8381   -3.0424 C.ar    1  UNL1        0.0000
     13 C           6.5554    7.5393   -2.5614 C.ar    1  UNL1        0.0000
     14 C           6.3111    7.3006   -1.2212 C.ar    1  UNL1        0.0000
     15 C           4.2173    6.9848    1.8739 C.ar    1  UNL1        0.0000
     16 C           4.2295    5.6008    1.7242 C.ar    1  UNL1        0.0000
     17 C           3.1339    4.8364    2.0838 C.ar    1  UNL1        0.0000
     18 C           2.0060    5.4459    2.6081 C.ar    1  UNL1        0.0000
     19 C           1.9736    6.8229    2.7571 C.ar    1  UNL1        0.0000
     20 C           3.0687    7.5851    2.3876 C.ar    1  UNL1        0.0000
     21 H           7.6864    5.7541    1.2089 H       1  UNL1        0.0000
     22 H           9.5534    4.9365    2.5790 H       1  UNL1        0.0000
     23 H          10.1960    6.1346    4.6367 H       1  UNL1        0.0000
     24 H           8.9509    8.1553    5.3202 H       1  UNL1        0.0000
     25 H           7.0607    8.9526    3.9606 H       1  UNL1        0.0000
     26 H           5.8914   10.4727   -0.1610 H       1  UNL1        0.0000
     27 H           6.3312   10.9084   -2.5498 H       1  UNL1        0.0000
     28 H           6.7576    9.0260   -4.0890 H       1  UNL1        0.0000
     29 H           6.7360    6.7129   -3.2339 H       1  UNL1        0.0000
     30 H           6.2954    6.2848   -0.8546 H       1  UNL1        0.0000
     31 H           5.1119    5.1170    1.3311 H       1  UNL1        0.0000
     32 H           3.1609    3.7627    1.9629 H       1  UNL1        0.0000
     33 H           1.1547    4.8486    2.9009 H       1  UNL1        0.0000
     34 H           1.0976    7.3034    3.1686 H       1  UNL1        0.0000
     35 H           3.0415    8.6660    2.5040 H       1  UNL1        0.0000
@<TRIPOS>BOND
     1    28    12    1
     2    29    13    1
     3    12    13   ar
     4    12    11   ar
     5    13    14   ar
     6    27    11    1
     7    11    10   ar
     8    14    30    1
     9    14     9   ar
    10    10     9   ar
    11    10    26    1
    12     9     1    1
    13    21     4    1
    14    31    16    1
    15     1    15    1
    16     1     2    1
    17     1     3    1
    18    16    15   ar
    19    16    17   ar
    20    15    20   ar
    21    32    17    1
    22    17    18   ar
    23     4     3   ar
    24     4     5   ar
    25    20    35    1
    26    20    19   ar
    27     3     8   ar
    28    22     5    1
    29    18    19   ar
    30    18    33    1
    31    19    34    1
    32     5     6   ar
    33     8    25    1
    34     8     7   ar
    35     6     7   ar
    36     6    23    1
    37     7    24    1
