@<TRIPOS>MOLECULE
1
 13 13 0 0 0
SMALL
GASTEIGER

@<TRIPOS>ATOM
      1 O          10.8023    3.3931    8.4970 O.3     1  UNL1       -0.3798
      2 C           9.3948    3.1735    8.6057 C.3     1  UNL1        0.0477
      3 H           8.9716    3.0514    7.6016 H       1  UNL1        0.0560
      4 H           8.9620    4.0564    9.0769 H       1  UNL1        0.0560
      5 C          11.3989    2.1018    8.5710 C.3     1  UNL1        0.0477
      6 H          12.4524    2.2259    8.8170 H       1  UNL1        0.0560
      7 H          11.3040    1.5953    7.6004 H       1  UNL1        0.0560
      8 C          10.6072    1.3566    9.6432 C.3     1  UNL1       -0.0274
      9 H          10.9806    1.6251   10.6295 H       1  UNL1        0.0288
     10 H          10.6688    0.2778    9.5224 H       1  UNL1        0.0288
     11 C           9.1879    1.8992    9.4451 C.3     1  UNL1       -0.0274
     12 H           8.5619    1.1864    8.9106 H       1  UNL1        0.0288
     13 H           8.7145    2.1299   10.3966 H       1  UNL1        0.0288
@<TRIPOS>BOND
     1     7     5    1
     2     3     2    1
     3     1     5    1
     4     1     2    1
     5     5     6    1
     6     5     8    1
     7     2     4    1
     8     2    11    1
     9    12    11    1
    10    11     8    1
    11    11    13    1
    12    10     8    1
    13     8     9    1
