@<TRIPOS>MOLECULE
1
 13 13 0 0 0
SMALL
GASTEIGER

@<TRIPOS>ATOM
      1 O           6.5943    8.3544   13.5922 O.3     1  UNL1       -0.3798
      2 C           6.8112    9.2470   12.5056 C.3     1  UNL1        0.0477
      3 H           5.8883    9.8012   12.3349 H       1  UNL1        0.0560
      4 H           7.0807    8.6787   11.6042 H       1  UNL1        0.0560
      5 C           7.8895    7.9912   14.0740 C.3     1  UNL1        0.0477
      6 H           8.2176    7.0688   13.5807 H       1  UNL1        0.0560
      7 H           7.7986    7.8071   15.1461 H       1  UNL1        0.0560
      8 C           8.8493    9.1490   13.7365 C.3     1  UNL1       -0.0274
      9 H           9.2647    9.6049   14.6331 H       1  UNL1        0.0288
     10 H           9.6767    8.7890   13.1265 H       1  UNL1        0.0288
     11 C           7.9738   10.1313   12.9504 C.3     1  UNL1       -0.0274
     12 H           8.4948   10.5806   12.1087 H       1  UNL1        0.0288
     13 H           7.5984   10.9235   13.5970 H       1  UNL1        0.0288
@<TRIPOS>BOND
     1     4     2    1
     2    12    11    1
     3     3     2    1
     4     2    11    1
     5     2     1    1
     6    11    13    1
     7    11     8    1
     8    10     8    1
     9     6     5    1
    10     1     5    1
    11     8     5    1
    12     8     9    1
    13     5     7    1
