@<TRIPOS>MOLECULE
1
 13 13 0 0 0
SMALL
GASTEIGER

@<TRIPOS>ATOM
      1 O           5.1535    6.2374    1.4792 O.3     1  UNL1       -0.3798
      2 C           4.5234    7.5109    1.4084 C.3     1  UNL1        0.0477
      3 H           4.6940    8.0638    2.3433 H       1  UNL1        0.0560
      4 H           3.4542    7.3566    1.2665 H       1  UNL1        0.0560
      5 C           5.2079    8.2193    0.2417 C.3     1  UNL1       -0.0274
      6 H           5.1219    9.3010    0.3085 H       1  UNL1        0.0288
      7 H           4.7704    7.8860   -0.6977 H       1  UNL1        0.0288
      8 C           6.6544    7.7262    0.3627 C.3     1  UNL1       -0.0274
      9 H           7.0722    7.4735   -0.6088 H       1  UNL1        0.0288
     10 H           7.2900    8.4780    0.8279 H       1  UNL1        0.0288
     11 C           6.5438    6.4800    1.2616 C.3     1  UNL1        0.0477
     12 H           6.9638    5.5871    0.7967 H       1  UNL1        0.0560
     13 H           7.0350    6.6528    2.2269 H       1  UNL1        0.0560
@<TRIPOS>BOND
     1     7     5    1
     2     9     8    1
     3     5     6    1
     4     5     8    1
     5     5     2    1
     6     8    10    1
     7     8    11    1
     8    12    11    1
     9    11     1    1
    10    11    13    1
    11     4     2    1
    12     2     1    1
    13     2     3    1
