@<TRIPOS>MOLECULE
2
 14 13 0 0 0
SMALL
GASTEIGER

@<TRIPOS>ATOM
      1 SI          2.4849    1.2563    1.4634 Si      1  UNL1        0.0000
      2 O           2.6780    2.7539    0.8924 O.3     1  UNL1        0.0000
      3 C           3.6707    1.0304    2.9465 C.3     1  UNL1        0.0000
      4 C           2.9118    0.0262    0.0618 C.3     1  UNL1        0.0000
      5 C           0.6652    1.0715    2.0122 C.3     1  UNL1        0.0000
      6 H           3.5843    1.8592    3.6440 H       1  UNL1        0.0000
      7 H           3.4329    0.1185    3.4842 H       1  UNL1        0.0000
      8 H           4.7095    0.9663    2.6335 H       1  UNL1        0.0000
      9 H           3.6460    0.4438   -0.6223 H       1  UNL1        0.0000
     10 H           3.3196   -0.8935    0.4677 H       1  UNL1        0.0000
     11 H           2.0343   -0.2397   -0.5213 H       1  UNL1        0.0000
     12 H          -0.0184    1.0978    1.1666 H       1  UNL1        0.0000
     13 H           0.5085    0.1346    2.5361 H       1  UNL1        0.0000
     14 H           0.3875    1.8812    2.6812 H       1  UNL1        0.0000
@<TRIPOS>BOND
     1     9     4    1
     2    11     4    1
     3     4    10    1
     4     4     1    1
     5     2     1    1
     6    12     5    1
     7     1     5    1
     8     1     3    1
     9     5    13    1
    10     5    14    1
    11     8     3    1
    12     3     7    1
    13     3     6    1
