@<TRIPOS>MOLECULE
1
 11 10 0 0 0
SMALL
GASTEIGER

@<TRIPOS>ATOM
      1 O           8.4371    3.9983    5.1705 O.3     1  UNL1       -0.2317
      2 C           7.6015    4.7233    6.0049 C.3     1  UNL1        0.0882
      3 C           7.2712    3.9022    7.2598 C.3     1  UNL1       -0.0359
      4 C           8.2746    6.0522    6.3736 C.3     1  UNL1       -0.0359
      5 H           6.6603    4.9417    5.4593 H       1  UNL1        0.0622
      6 H           6.8426    2.9419    6.9578 H       1  UNL1        0.0255
      7 H           6.5652    4.4309    7.8975 H       1  UNL1        0.0255
      8 H           8.1969    3.7185    7.8117 H       1  UNL1        0.0255
      9 H           7.6453    6.6330    7.0431 H       1  UNL1        0.0255
     10 H           8.4651    6.6267    5.4692 H       1  UNL1        0.0255
     11 H           9.2287    5.8447    6.8570 H       1  UNL1        0.0255
@<TRIPOS>BOND
     1     1     2    1
     2     5     2    1
     3    10     4    1
     4     2     4    1
     5     2     3    1
     6     4    11    1
     7     4     9    1
     8     6     3    1
     9     3     8    1
    10     3     7    1
