@<TRIPOS>MOLECULE
1
 11 10 0 0 0
SMALL
GASTEIGER

@<TRIPOS>ATOM
      1 O           8.5219    1.2290    5.9955 O.3     1  UNL1       -0.2317
      2 C           8.6753   -0.1529    5.9333 C.3     1  UNL1        0.0882
      3 C           7.7529   -0.7375    4.8545 C.3     1  UNL1       -0.0359
      4 C          10.1360   -0.5262    5.6379 C.3     1  UNL1       -0.0359
      5 H           8.3834   -0.5751    6.9155 H       1  UNL1        0.0622
      6 H           7.7942   -1.8240    4.8682 H       1  UNL1        0.0255
      7 H           6.7271   -0.4197    5.0347 H       1  UNL1        0.0255
      8 H           8.0730   -0.3760    3.8780 H       1  UNL1        0.0255
      9 H          10.4368   -0.0652    4.6915 H       1  UNL1        0.0255
     10 H          10.2425   -1.6066    5.5598 H       1  UNL1        0.0255
     11 H          10.7884   -0.1620    6.4325 H       1  UNL1        0.0255
@<TRIPOS>BOND
     1     8     3    1
     2     9     4    1
     3     3     6    1
     4     3     7    1
     5     3     2    1
     6    10     4    1
     7     4     2    1
     8     4    11    1
     9     2     1    1
    10     2     5    1
