@<TRIPOS>MOLECULE
1
 13 13 0 0 0
SMALL
GASTEIGER

@<TRIPOS>ATOM
      1 O          -0.6668    3.3150    2.7898 O.3     1  UNL1       -0.3798
      2 C          -0.5827    4.6368    2.2355 C.3     1  UNL1        0.0477
      3 H           0.2350    4.6569    1.5112 H       1  UNL1        0.0560
      4 H          -0.3602    5.3330    3.0502 H       1  UNL1        0.0560
      5 C          -1.9399    4.9376    1.6039 C.3     1  UNL1       -0.0274
      6 H          -2.1744    5.9991    1.6189 H       1  UNL1        0.0288
      7 H          -1.9674    4.5828    0.5729 H       1  UNL1        0.0288
      8 C          -2.8763    4.1027    2.4719 C.3     1  UNL1       -0.0274
      9 H          -3.8186    3.8651    1.9842 H       1  UNL1        0.0288
     10 H          -3.0792    4.6172    3.4113 H       1  UNL1        0.0288
     11 C          -2.0218    2.8640    2.7182 C.3     1  UNL1        0.0477
     12 H          -2.2640    2.3482    3.6504 H       1  UNL1        0.0560
     13 H          -2.1219    2.1548    1.8848 H       1  UNL1        0.0560
@<TRIPOS>BOND
     1     7     5    1
     2     3     2    1
     3     5     6    1
     4     5     2    1
     5     5     8    1
     6    13    11    1
     7     9     8    1
     8     2     1    1
     9     2     4    1
    10     8    11    1
    11     8    10    1
    12    11     1    1
    13    11    12    1
