@<TRIPOS>MOLECULE
7
 13 13 0 0 0
SMALL
GASTEIGER

@<TRIPOS>ATOM
      1 C           3.4601   11.8022   18.6576 C.3     1  UNL1        0.0477
      2 H           2.5918   12.4648   18.6329 H       1  UNL1        0.0560
      3 H           3.8662   11.7712   19.6778 H       1  UNL1        0.0560
      4 C           3.9706    9.9207   17.3641 C.3     1  UNL1        0.0477
      5 H           3.4935    9.8764   16.3782 H       1  UNL1        0.0560
      6 H           4.2143    8.9052   17.6885 H       1  UNL1        0.0560
      7 O           3.0323   10.4816   18.2948 O.3     1  UNL1       -0.3798
      8 C           4.5382   12.1980   17.6554 C.3     1  UNL1       -0.0274
      9 H           4.0768   12.6093   16.7584 H       1  UNL1        0.0288
     10 H           5.2360   12.9240   18.0655 H       1  UNL1        0.0288
     11 C           5.1821   10.8487   17.3512 C.3     1  UNL1       -0.0274
     12 H           5.8807   10.5754   18.1433 H       1  UNL1        0.0288
     13 H           5.7042   10.8280   16.3979 H       1  UNL1        0.0288
@<TRIPOS>BOND
     1     5     4    1
     2    13    11    1
     3     9     8    1
     4    11     4    1
     5    11     8    1
     6    11    12    1
     7     4     6    1
     8     4     7    1
     9     8    10    1
    10     8     1    1
    11     7     1    1
    12     2     1    1
    13     1     3    1
