@<TRIPOS>MOLECULE
1
 13 13 0 0 0
SMALL
GASTEIGER

@<TRIPOS>ATOM
      1 O           6.7314    6.4153    4.4784 O.3     1  UNL1       -0.3798
      2 C           5.6645    5.6362    3.9549 C.3     1  UNL1        0.0477
      3 H           6.0765    4.6875    3.6118 H       1  UNL1        0.0560
      4 H           5.1987    6.1709    3.1145 H       1  UNL1        0.0560
      5 C           4.6816    5.4885    5.1172 C.3     1  UNL1       -0.0274
      6 H           3.6667    5.2998    4.7755 H       1  UNL1        0.0288
      7 H           4.9950    4.6667    5.7599 H       1  UNL1        0.0288
      8 C           4.8241    6.8292    5.8507 C.3     1  UNL1       -0.0274
      9 H           3.9720    7.4802    5.6619 H       1  UNL1        0.0288
     10 H           4.9134    6.6851    6.9254 H       1  UNL1        0.0288
     11 C           6.1103    7.4353    5.2583 C.3     1  UNL1        0.0477
     12 H           5.8721    8.2856    4.6074 H       1  UNL1        0.0560
     13 H           6.8253    7.7446    6.0204 H       1  UNL1        0.0560
@<TRIPOS>BOND
     1     4     2    1
     2     3     2    1
     3     2     1    1
     4     2     5    1
     5     1    11    1
     6    12    11    1
     7     6     5    1
     8     5     7    1
     9     5     8    1
    10    11     8    1
    11    11    13    1
    12     9     8    1
    13     8    10    1
