@<TRIPOS>MOLECULE
1
 13 13 0 0 0
SMALL
GASTEIGER

@<TRIPOS>ATOM
      1 O          12.0858    5.1529    4.4257 O.3     1  UNL1       -0.3798
      2 C          12.7176    4.3286    3.4495 C.3     1  UNL1        0.0477
      3 H          12.9130    4.9238    2.5491 H       1  UNL1        0.0560
      4 H          12.0292    3.5172    3.2128 H       1  UNL1        0.0560
      5 C          14.0400    3.8426    4.0733 C.3     1  UNL1       -0.0274
      6 H          13.9878    2.7894    4.3419 H       1  UNL1        0.0288
      7 H          14.8633    3.9801    3.3747 H       1  UNL1        0.0288
      8 C          14.2013    4.7268    5.3186 C.3     1  UNL1       -0.0274
      9 H          15.2032    5.1378    5.4169 H       1  UNL1        0.0288
     10 H          13.9627    4.1647    6.2209 H       1  UNL1        0.0288
     11 C          13.1505    5.8162    5.0919 C.3     1  UNL1        0.0477
     12 H          12.7564    6.2487    6.0112 H       1  UNL1        0.0560
     13 H          13.5533    6.6068    4.4439 H       1  UNL1        0.0560
@<TRIPOS>BOND
     1     3     2    1
     2     4     2    1
     3     7     5    1
     4     2     5    1
     5     2     1    1
     6     5     6    1
     7     5     8    1
     8     1    11    1
     9    13    11    1
    10    11     8    1
    11    11    12    1
    12     8     9    1
    13     8    10    1
