@<TRIPOS>MOLECULE
1
 13 13 0 0 0
SMALL
GASTEIGER

@<TRIPOS>ATOM
      1 O           0.9744    3.5126    2.2568 O.3     1  UNL1       -0.3798
      2 C           0.4110    2.2046    2.1574 C.3     1  UNL1        0.0477
      3 H           1.0564    1.5212    2.7123 H       1  UNL1        0.0560
      4 H           0.3585    1.9017    1.1009 H       1  UNL1        0.0560
      5 C          -0.9887    2.3452    2.7392 C.3     1  UNL1       -0.0274
      6 H          -0.9280    2.3801    3.8264 H       1  UNL1        0.0288
      7 H          -1.6473    1.5312    2.4482 H       1  UNL1        0.0288
      8 C          -1.4156    3.7016    2.1751 C.3     1  UNL1       -0.0274
      9 H          -2.0935    4.2324    2.8395 H       1  UNL1        0.0288
     10 H          -1.9105    3.5734    1.2123 H       1  UNL1        0.0288
     11 C          -0.0822    4.4499    2.0034 C.3     1  UNL1        0.0477
     12 H           0.0224    4.8423    0.9839 H       1  UNL1        0.0560
     13 H           0.0394    5.2656    2.7186 H       1  UNL1        0.0560
@<TRIPOS>BOND
     1    12    11    1
     2     4     2    1
     3    10     8    1
     4    11     8    1
     5    11     1    1
     6    11    13    1
     7     2     1    1
     8     2     3    1
     9     2     5    1
    10     8     5    1
    11     8     9    1
    12     7     5    1
    13     5     6    1
