@<TRIPOS>MOLECULE
13
 13 13 0 0 0
SMALL
GASTEIGER

@<TRIPOS>ATOM
      1 C          10.7284    8.4984   17.3423 C.3     1  UNL1        0.0477
      2 H           9.7589    8.4535   16.8344 H       1  UNL1        0.0560
      3 H          11.5248    8.2241   16.6418 H       1  UNL1        0.0560
      4 C          10.9861    9.8634   17.9795 C.3     1  UNL1       -0.0274
      5 H          10.0453   10.3505   18.2398 H       1  UNL1        0.0288
      6 H          11.5502   10.5200   17.3219 H       1  UNL1        0.0288
      7 C          11.7541    9.4848   19.2422 C.3     1  UNL1       -0.0274
      8 H          11.6940   10.2400   20.0220 H       1  UNL1        0.0288
      9 H          12.7977    9.2880   19.0015 H       1  UNL1        0.0288
     10 C          11.0592    8.1877   19.6350 C.3     1  UNL1        0.0477
     11 H          11.6819    7.5156   20.2274 H       1  UNL1        0.0560
     12 H          10.1281    8.3913   20.1822 H       1  UNL1        0.0560
     13 O          10.7366    7.5249   18.4050 O.3     1  UNL1       -0.3798
@<TRIPOS>BOND
     1     3     1    1
     2     2     1    1
     3     6     4    1
     4     1     4    1
     5     1    13    1
     6     4     5    1
     7     4     7    1
     8    13    10    1
     9     9     7    1
    10     7    10    1
    11     7     8    1
    12    10    12    1
    13    10    11    1
