@<TRIPOS>MOLECULE
15
 15 14 0 0 0
SMALL
GASTEIGER

@<TRIPOS>ATOM
      1 C           2.2086    6.8930    4.0648 C.3     1  UNL1        0.0448
      2 H           1.4418    6.2791    3.5809 H       1  UNL1        0.0557
      3 H           2.9041    7.2408    3.2931 H       1  UNL1        0.0557
      4 C           1.5552    8.0735    4.7742 C.3     1  UNL1       -0.0416
      5 H           1.0311    7.7090    5.6590 H       1  UNL1        0.0252
      6 H           0.8537    8.5666    4.1058 H       1  UNL1        0.0252
      7 H           2.2995    8.7996    5.0915 H       1  UNL1        0.0252
      8 C           4.2077    6.4462    5.3143 C.3     1  UNL1        0.0448
      9 H           4.4787    5.8463    6.1878 H       1  UNL1        0.0557
     10 H           4.1921    7.5040    5.5997 H       1  UNL1        0.0557
     11 C           5.2202    6.2000    4.1994 C.3     1  UNL1       -0.0416
     12 H           5.1933    5.1542    3.9045 H       1  UNL1        0.0252
     13 H           6.2154    6.4318    4.5671 H       1  UNL1        0.0252
     14 H           5.0271    6.8194    3.3266 H       1  UNL1        0.0252
     15 O           2.8832    6.0160    4.9733 O.3     1  UNL1       -0.3803
@<TRIPOS>BOND
     1     3     1    1
     2    14    11    1
     3     2     1    1
     4    12    11    1
     5     1     4    1
     6     1    15    1
     7     6     4    1
     8    11    13    1
     9    11     8    1
    10     4     7    1
    11     4     5    1
    12    15     8    1
    13     8    10    1
    14     8     9    1
