@<TRIPOS>MOLECULE
1
 11 10 0 0 0
SMALL
GASTEIGER

@<TRIPOS>ATOM
      1 O           1.6924    7.8327    9.0938 O.3     1  UNL1       -0.2317
      2 C           1.1097    8.9610    8.5018 C.3     1  UNL1        0.0882
      3 H           1.6651    9.2030    7.5742 H       1  UNL1        0.0622
      4 C           1.2303   10.1599    9.4579 C.3     1  UNL1       -0.0359
      5 H           0.5878   10.0165   10.3271 H       1  UNL1        0.0255
      6 H           0.9485   11.0835    8.9569 H       1  UNL1        0.0255
      7 H           2.2744   10.2231    9.7958 H       1  UNL1        0.0255
      8 C          -0.3514    8.6901    8.1141 C.3     1  UNL1       -0.0359
      9 H          -0.4024    7.8038    7.4857 H       1  UNL1        0.0255
     10 H          -0.7562    9.5369    7.5656 H       1  UNL1        0.0255
     11 H          -0.9563    8.5195    9.0006 H       1  UNL1        0.0255
@<TRIPOS>BOND
     1     9     8    1
     2    10     8    1
     3     3     2    1
     4     8     2    1
     5     8    11    1
     6     2     1    1
     7     2     4    1
     8     6     4    1
     9     4     7    1
    10     4     5    1
