@<TRIPOS>MOLECULE
1
 13 13 0 0 0
SMALL
GASTEIGER

@<TRIPOS>ATOM
      1 O           4.1999    4.7431    2.6282 O.3     1  UNL1       -0.3798
      2 C           3.2212    5.2335    3.5423 C.3     1  UNL1        0.0477
      3 H           2.4346    4.4842    3.6275 H       1  UNL1        0.0560
      4 H           2.8039    6.1744    3.1522 H       1  UNL1        0.0560
      5 C           3.9907    5.4798    4.8419 C.3     1  UNL1       -0.0274
      6 H           4.0304    4.5608    5.4251 H       1  UNL1        0.0288
      7 H           3.5328    6.2621    5.4429 H       1  UNL1        0.0288
      8 C           5.3975    5.8570    4.3468 C.3     1  UNL1       -0.0274
      9 H           5.6367    6.9003    4.5447 H       1  UNL1        0.0288
     10 H           6.1504    5.2302    4.8206 H       1  UNL1        0.0288
     11 C           5.3305    5.5877    2.8338 C.3     1  UNL1        0.0477
     12 H           5.1773    6.5284    2.2834 H       1  UNL1        0.0560
     13 H           6.2146    5.0838    2.4396 H       1  UNL1        0.0560
@<TRIPOS>BOND
     1    12    11    1
     2    13    11    1
     3     1    11    1
     4     1     2    1
     5    11     8    1
     6     4     2    1
     7     2     3    1
     8     2     5    1
     9     8     9    1
    10     8    10    1
    11     8     5    1
    12     5     6    1
    13     5     7    1
