@<TRIPOS>MOLECULE
1
 13 12 0 0 0
SMALL
GASTEIGER

@<TRIPOS>ATOM
      1 O          12.5747   10.0088    9.6168 O.co2   1  UNL1       -0.2394
      2 O          13.5483   12.0323    9.6069 O.co2   1  UNL1       -0.2394
      3 F          11.3124   13.1048    8.5339 F       1  UNL1       -0.1859
      4 F          10.2304   11.3428    9.1987 F       1  UNL1       -0.1859
      5 F          12.5951   11.1876    6.6151 F       1  UNL1       -0.1884
      6 F          10.9570    9.8980    7.1771 F       1  UNL1       -0.1884
      7 F          10.9203   13.1410    5.8486 F       1  UNL1       -0.1648
      8 F          10.2748   11.2600    5.0401 F       1  UNL1       -0.1648
      9 F           9.2098   12.1340    6.6872 F       1  UNL1       -0.1648
     10 C          12.6816   11.2227    9.3904 C.2     1  UNL1        0.4305
     11 C          11.3742   11.7561    8.5878 C.3     1  UNL1        0.4170
     12 C          11.3528   11.1908    7.1512 C.3     1  UNL1        0.4135
     13 C          10.4223   11.9542    6.1738 C.3     1  UNL1        0.4608
@<TRIPOS>BOND
     1     8    13    1
     2     7    13    1
     3    13     9    1
     4    13    12    1
     5     5    12    1
     6    12     6    1
     7    12    11    1
     8     3    11    1
     9    11     4    1
    10    11    10    1
    11    10     2   ar
    12    10     1   ar
