@<TRIPOS>MOLECULE
2
 35 37 0 0 0
SMALL
GASTEIGER

@<TRIPOS>ATOM
      1 SI         13.8510    9.0395    9.0225 Si      1  UNL1        0.0000
      2 O          14.3431    9.0221   10.5445 O.3     1  UNL1        0.0000
      3 C          15.1593    9.9695    8.0103 C.ar    1  UNL1        0.0000
      4 C          16.1732   10.6357    8.6923 C.ar    1  UNL1        0.0000
      5 H          16.1700   10.6000    9.7748 H       1  UNL1        0.0000
      6 C          17.1758   11.3036    8.0139 C.ar    1  UNL1        0.0000
      7 H          17.9636   11.8021    8.5608 H       1  UNL1        0.0000
      8 C          17.1750   11.3204    6.6293 C.ar    1  UNL1        0.0000
      9 H          17.9579   11.8371    6.0929 H       1  UNL1        0.0000
     10 C          16.1693   10.6702    5.9337 C.ar    1  UNL1        0.0000
     11 H          16.1664   10.6823    4.8529 H       1  UNL1        0.0000
     12 C          15.1724   10.0004    6.6205 C.ar    1  UNL1        0.0000
     13 H          14.3949    9.4893    6.0721 H       1  UNL1        0.0000
     14 C          13.5907    7.2498    8.4470 C.ar    1  UNL1        0.0000
     15 C          14.0173    6.2158    9.2789 C.ar    1  UNL1        0.0000
     16 H          14.4822    6.4695   10.2239 H       1  UNL1        0.0000
     17 C          13.8470    4.8932    8.9101 C.ar    1  UNL1        0.0000
     18 H          14.1844    4.1035    9.5659 H       1  UNL1        0.0000
     19 C          13.2480    4.5805    7.7006 C.ar    1  UNL1        0.0000
     20 H          13.1162    3.5481    7.4092 H       1  UNL1        0.0000
     21 C          12.8168    5.5968    6.8643 C.ar    1  UNL1        0.0000
     22 H          12.3470    5.3573    5.9205 H       1  UNL1        0.0000
     23 C          12.9878    6.9181    7.2377 C.ar    1  UNL1        0.0000
     24 H          12.6424    7.7069    6.5840 H       1  UNL1        0.0000
     25 C          12.1770    9.9680    9.0254 C.ar    1  UNL1        0.0000
     26 C          10.9615    9.2923    8.9939 C.ar    1  UNL1        0.0000
     27 H          10.9583    8.2196    8.8564 H       1  UNL1        0.0000
     28 C           9.7614    9.9680    9.1328 C.ar    1  UNL1        0.0000
     29 H           8.8279    9.4236    9.0983 H       1  UNL1        0.0000
     30 C           9.7555   11.3397    9.3194 C.ar    1  UNL1        0.0000
     31 H           8.8203   11.8693    9.4340 H       1  UNL1        0.0000
     32 C          10.9549   12.0314    9.3496 C.ar    1  UNL1        0.0000
     33 H          10.9570   13.1036    9.4897 H       1  UNL1        0.0000
     34 C          12.1486   11.3493    9.1974 C.ar    1  UNL1        0.0000
     35 H          13.0819   11.8959    9.2096 H       1  UNL1        0.0000
@<TRIPOS>BOND
     1    11    10    1
     2    22    21    1
     3    10    12   ar
     4    10     8   ar
     5    13    12    1
     6     9     8    1
     7    24    23    1
     8    12     3   ar
     9     8     6   ar
    10    21    23   ar
    11    21    19   ar
    12    23    14   ar
    13    20    19    1
    14    19    17   ar
    15     3     4   ar
    16     3     1    1
    17     6     7    1
    18     6     4   ar
    19    14     1    1
    20    14    15   ar
    21     4     5    1
    22    27    26    1
    23    17    15   ar
    24    17    18    1
    25    26    25   ar
    26    26    28   ar
    27     1    25    1
    28     1     2    1
    29    25    34   ar
    30    29    28    1
    31    28    30   ar
    32    34    35    1
    33    34    32   ar
    34    15    16    1
    35    30    32   ar
    36    30    31    1
    37    32    33    1
