@<TRIPOS>MOLECULE
2
 35 37 0 0 0
SMALL
GASTEIGER

@<TRIPOS>ATOM
      1 SI         17.5950   10.1287   12.6822 Si      1  UNL1        0.0000
      2 O          16.0111    9.8894   12.5385 O.3     1  UNL1        0.0000
      3 C          17.9746   12.0034   12.7126 C.ar    1  UNL1        0.0000
      4 C          17.5923   12.8239   11.6534 C.ar    1  UNL1        0.0000
      5 H          17.0702   12.3917   10.8115 H       1  UNL1        0.0000
      6 C          17.8764   14.1780   11.6463 C.ar    1  UNL1        0.0000
      7 H          17.5661   14.7911   10.8113 H       1  UNL1        0.0000
      8 C          18.5654   14.7455   12.7047 C.ar    1  UNL1        0.0000
      9 H          18.7939   15.8018   12.7023 H       1  UNL1        0.0000
     10 C          18.9631   13.9471   13.7635 C.ar    1  UNL1        0.0000
     11 H          19.5049   14.3809   14.5925 H       1  UNL1        0.0000
     12 C          18.6680   12.5943   13.7643 C.ar    1  UNL1        0.0000
     13 H          18.9763   11.9832   14.5992 H       1  UNL1        0.0000
     14 C          18.1611    9.3185   14.3023 C.ar    1  UNL1        0.0000
     15 C          17.2141    8.6203   15.0465 C.ar    1  UNL1        0.0000
     16 H          16.2163    8.5046   14.6369 H       1  UNL1        0.0000
     17 C          17.5357    8.0703   16.2740 C.ar    1  UNL1        0.0000
     18 H          16.7833    7.5369   16.8372 H       1  UNL1        0.0000
     19 C          18.8193    8.2060   16.7760 C.ar    1  UNL1        0.0000
     20 H          19.0741    7.7857   17.7386 H       1  UNL1        0.0000
     21 C          19.7814    8.8721   16.0348 C.ar    1  UNL1        0.0000
     22 H          20.7888    8.9647   16.4163 H       1  UNL1        0.0000
     23 C          19.4539    9.4203   14.8073 C.ar    1  UNL1        0.0000
     24 H          20.2125    9.9290   14.2290 H       1  UNL1        0.0000
     25 C          18.3563    9.3942   11.0975 C.ar    1  UNL1        0.0000
     26 C          19.5067    9.8945   10.4964 C.ar    1  UNL1        0.0000
     27 H          20.0495   10.6963   10.9784 H       1  UNL1        0.0000
     28 C          19.9540    9.3900    9.2878 C.ar    1  UNL1        0.0000
     29 H          20.8479    9.7922    8.8315 H       1  UNL1        0.0000
     30 C          19.2501    8.3784    8.6567 C.ar    1  UNL1        0.0000
     31 H          19.5912    7.9945    7.7059 H       1  UNL1        0.0000
     32 C          18.1064    7.8638    9.2456 C.ar    1  UNL1        0.0000
     33 H          17.5516    7.0767    8.7556 H       1  UNL1        0.0000
     34 C          17.6671    8.3642   10.4582 C.ar    1  UNL1        0.0000
     35 H          16.7657    7.9718   10.9221 H       1  UNL1        0.0000
@<TRIPOS>BOND
     1    31    30    1
     2    30    32   ar
     3    30    28   ar
     4    33    32    1
     5    29    28    1
     6    32    34   ar
     7    28    26   ar
     8    34    35    1
     9    34    25   ar
    10    26    27    1
    11    26    25   ar
    12     7     6    1
    13     5     4    1
    14    25     1    1
    15     6     4   ar
    16     6     8   ar
    17     4     3   ar
    18     2     1    1
    19     1     3    1
    20     1    14    1
    21     9     8    1
    22     8    10   ar
    23     3    12   ar
    24    10    12   ar
    25    10    11    1
    26    12    13    1
    27    24    23    1
    28    14    23   ar
    29    14    15   ar
    30    16    15    1
    31    23    21   ar
    32    15    17   ar
    33    21    22    1
    34    21    19   ar
    35    17    19   ar
    36    17    18    1
    37    19    20    1
