@<TRIPOS>MOLECULE
2
 35 37 0 0 0
SMALL
GASTEIGER

@<TRIPOS>ATOM
      1 SI          4.3323    9.5703    9.7473 Si      1  UNL1        0.0000
      2 O           3.0265    9.6127   10.6642 O.3     1  UNL1        0.0000
      3 C           3.9262   10.0798    7.9605 C.ar    1  UNL1        0.0000
      4 C           2.6071   10.2386    7.5494 C.ar    1  UNL1        0.0000
      5 H           1.8135   10.0491    8.2574 H       1  UNL1        0.0000
      6 C           2.2944   10.6190    6.2567 C.ar    1  UNL1        0.0000
      7 H           1.2599   10.7322    5.9630 H       1  UNL1        0.0000
      8 C           3.3070   10.8470    5.3407 C.ar    1  UNL1        0.0000
      9 H           3.0697   11.1438    4.3291 H       1  UNL1        0.0000
     10 C           4.6276   10.6878    5.7278 C.ar    1  UNL1        0.0000
     11 H           5.4223   10.8603    5.0158 H       1  UNL1        0.0000
     12 C           4.9291   10.3079    7.0233 C.ar    1  UNL1        0.0000
     13 H           5.9617   10.1870    7.3167 H       1  UNL1        0.0000
     14 C           5.5452   10.8232   10.5224 C.ar    1  UNL1        0.0000
     15 C           5.9235   12.0085    9.9020 C.ar    1  UNL1        0.0000
     16 H           5.5586   12.2262    8.9077 H       1  UNL1        0.0000
     17 C           6.7622   12.9110   10.5333 C.ar    1  UNL1        0.0000
     18 H           7.0508   13.8232   10.0297 H       1  UNL1        0.0000
     19 C           7.2349   12.6444   11.8067 C.ar    1  UNL1        0.0000
     20 H           7.8938   13.3459   12.2984 H       1  UNL1        0.0000
     21 C           6.8600   11.4738   12.4448 C.ar    1  UNL1        0.0000
     22 H           7.2217   11.2585   13.4401 H       1  UNL1        0.0000
     23 C           6.0237   10.5757   11.8067 C.ar    1  UNL1        0.0000
     24 H           5.7364    9.6612   12.3051 H       1  UNL1        0.0000
     25 C           5.0113    7.7957    9.8241 C.ar    1  UNL1        0.0000
     26 C           6.1521    7.3754    9.1482 C.ar    1  UNL1        0.0000
     27 H           6.6994    8.0819    8.5410 H       1  UNL1        0.0000
     28 C           6.5967    6.0689    9.2446 C.ar    1  UNL1        0.0000
     29 H           7.4860    5.7600    8.7134 H       1  UNL1        0.0000
     30 C           5.9022    5.1560   10.0211 C.ar    1  UNL1        0.0000
     31 H           6.2474    4.1347   10.0952 H       1  UNL1        0.0000
     32 C           4.7652    5.5568   10.7032 C.ar    1  UNL1        0.0000
     33 H           4.2192    4.8516   11.3123 H       1  UNL1        0.0000
     34 C           4.3279    6.8656   10.6052 C.ar    1  UNL1        0.0000
     35 H           3.4435    7.1858   11.1475 H       1  UNL1        0.0000
@<TRIPOS>BOND
     1     9     8    1
     2    11    10    1
     3     8    10   ar
     4     8     6   ar
     5    10    12   ar
     6     7     6    1
     7     6     4   ar
     8    12    13    1
     9    12     3   ar
    10     4     3   ar
    11     4     5    1
    12     3     1    1
    13    27    26    1
    14    29    28    1
    15    16    15    1
    16    26    28   ar
    17    26    25   ar
    18    28    30   ar
    19     1    25    1
    20     1    14    1
    21     1     2    1
    22    25    34   ar
    23    15    14   ar
    24    15    17   ar
    25    30    31    1
    26    30    32   ar
    27    18    17    1
    28    14    23   ar
    29    17    19   ar
    30    34    32   ar
    31    34    35    1
    32    32    33    1
    33    23    24    1
    34    23    21   ar
    35    19    20    1
    36    19    21   ar
    37    21    22    1
