@<TRIPOS>MOLECULE
2
 35 37 0 0 0
SMALL
GASTEIGER

@<TRIPOS>ATOM
      1 SI          0.0125   11.0471   14.7776 Si      1  UNL1        0.0000
      2 O           0.6826   10.3687   13.4963 O.3     1  UNL1        0.0000
      3 C           0.8977   12.7301   14.9688 C.ar    1  UNL1        0.0000
      4 C           1.8165   12.9995   15.9771 C.ar    1  UNL1        0.0000
      5 H           1.9964   12.2561   16.7405 H       1  UNL1        0.0000
      6 C           2.4985   14.2032   16.0231 C.ar    1  UNL1        0.0000
      7 H           3.2048   14.3939   16.8187 H       1  UNL1        0.0000
      8 C           2.2769   15.1635   15.0513 C.ar    1  UNL1        0.0000
      9 H           2.8075   16.1042   15.0846 H       1  UNL1        0.0000
     10 C           1.3661   14.9143   14.0383 C.ar    1  UNL1        0.0000
     11 H           1.1860   15.6614   13.2776 H       1  UNL1        0.0000
     12 C           0.6865   13.7107   14.0026 C.ar    1  UNL1        0.0000
     13 H          -0.0309   13.5270   13.2137 H       1  UNL1        0.0000
     14 C           0.2746    9.8826   16.2505 C.ar    1  UNL1        0.0000
     15 C           0.1357   10.2656   17.5801 C.ar    1  UNL1        0.0000
     16 H          -0.1628   11.2788   17.8131 H       1  UNL1        0.0000
     17 C           0.3816    9.3714   18.6075 C.ar    1  UNL1        0.0000
     18 H           0.2726    9.6866   19.6359 H       1  UNL1        0.0000
     19 C           0.7716    8.0744   18.3186 C.ar    1  UNL1        0.0000
     20 H           0.9696    7.3783   19.1211 H       1  UNL1        0.0000
     21 C           0.9070    7.6738   16.9993 C.ar    1  UNL1        0.0000
     22 H           1.2098    6.6630   16.7675 H       1  UNL1        0.0000
     23 C           0.6572    8.5708   15.9777 C.ar    1  UNL1        0.0000
     24 H           0.7680    8.2671   14.9426 H       1  UNL1        0.0000
     25 C          -1.8344   11.3608   14.4395 C.ar    1  UNL1        0.0000
     26 C          -2.7748   11.4438   15.4611 C.ar    1  UNL1        0.0000
     27 H          -2.4530   11.3174   16.4844 H       1  UNL1        0.0000
     28 C          -4.1116   11.6719   15.1858 C.ar    1  UNL1        0.0000
     29 H          -4.8277   11.7297   15.9934 H       1  UNL1        0.0000
     30 C          -4.5350   11.8197   13.8753 C.ar    1  UNL1        0.0000
     31 H          -5.5792   11.9929   13.6583 H       1  UNL1        0.0000
     32 C          -3.6137   11.7396   12.8446 C.ar    1  UNL1        0.0000
     33 H          -3.9376   11.8504   11.8191 H       1  UNL1        0.0000
     34 C          -2.2794   11.5149   13.1297 C.ar    1  UNL1        0.0000
     35 H          -1.5630   11.4460   12.3215 H       1  UNL1        0.0000
@<TRIPOS>BOND
     1    33    32    1
     2    35    34    1
     3    32    34   ar
     4    32    30   ar
     5    34    25   ar
     6    13    12    1
     7    11    10    1
     8     2     1    1
     9    31    30    1
    10    30    28   ar
    11    12    10   ar
    12    12     3   ar
    13    10     8   ar
    14    25     1    1
    15    25    26   ar
    16     1     3    1
    17     1    14    1
    18    24    23    1
    19     3     4   ar
    20     8     9    1
    21     8     6   ar
    22    28    26   ar
    23    28    29    1
    24    26    27    1
    25     4     6   ar
    26     4     5    1
    27    23    14   ar
    28    23    21   ar
    29     6     7    1
    30    14    15   ar
    31    22    21    1
    32    21    19   ar
    33    15    16    1
    34    15    17   ar
    35    19    17   ar
    36    19    20    1
    37    17    18    1
