@<TRIPOS>MOLECULE
2
 35 37 0 0 0
SMALL
GASTEIGER

@<TRIPOS>ATOM
      1 SI         13.5648    9.4383   15.7072 Si      1  UNL1        0.0000
      2 O          13.8873    9.3090   14.1456 O.3     1  UNL1        0.0000
      3 C          11.8263   10.2147   15.8721 C.ar    1  UNL1        0.0000
      4 C          10.7077    9.4739   15.4999 C.ar    1  UNL1        0.0000
      5 H          10.8439    8.4548   15.1606 H       1  UNL1        0.0000
      6 C           9.4352   10.0127   15.5663 C.ar    1  UNL1        0.0000
      7 H           8.5798    9.4188   15.2748 H       1  UNL1        0.0000
      8 C           9.2570   11.3117   16.0140 C.ar    1  UNL1        0.0000
      9 H           8.2642   11.7352   16.0719 H       1  UNL1        0.0000
     10 C          10.3572   12.0622   16.3939 C.ar    1  UNL1        0.0000
     11 H          10.2228   13.0739   16.7502 H       1  UNL1        0.0000
     12 C          11.6269   11.5157   16.3207 C.ar    1  UNL1        0.0000
     13 H          12.4827   12.1042   16.6214 H       1  UNL1        0.0000
     14 C          14.8843   10.5702   16.4756 C.ar    1  UNL1        0.0000
     15 C          15.4562   11.5739   15.6996 C.ar    1  UNL1        0.0000
     16 H          15.1411   11.6877   14.6697 H       1  UNL1        0.0000
     17 C          16.4197   12.4195   16.2172 C.ar    1  UNL1        0.0000
     18 H          16.8397   13.2005   15.6003 H       1  UNL1        0.0000
     19 C          16.8482   12.2587   17.5239 C.ar    1  UNL1        0.0000
     20 H          17.6075   12.9115   17.9298 H       1  UNL1        0.0000
     21 C          16.3015   11.2562   18.3068 C.ar    1  UNL1        0.0000
     22 H          16.6375   11.1228   19.3253 H       1  UNL1        0.0000
     23 C          15.3244   10.4267   17.7868 C.ar    1  UNL1        0.0000
     24 H          14.9001    9.6481   18.4034 H       1  UNL1        0.0000
     25 C          13.5213    7.7238   16.5177 C.ar    1  UNL1        0.0000
     26 C          13.0564    7.5269   17.8150 C.ar    1  UNL1        0.0000
     27 H          12.6863    8.3734   18.3775 H       1  UNL1        0.0000
     28 C          13.0521    6.2678   18.3878 C.ar    1  UNL1        0.0000
     29 H          12.6911    6.1334   19.3981 H       1  UNL1        0.0000
     30 C          13.5107    5.1786   17.6652 C.ar    1  UNL1        0.0000
     31 H          13.5117    4.1948   18.1129 H       1  UNL1        0.0000
     32 C          13.9620    5.3550   16.3674 C.ar    1  UNL1        0.0000
     33 H          14.3149    4.5077   15.7977 H       1  UNL1        0.0000
     34 C          13.9668    6.6164   15.7979 C.ar    1  UNL1        0.0000
     35 H          14.3135    6.7583   14.7812 H       1  UNL1        0.0000
@<TRIPOS>BOND
     1     2     1    1
     2    16    15    1
     3    35    34    1
     4     5     4    1
     5     7     6    1
     6     4     6   ar
     7     4     3   ar
     8     6     8   ar
     9    18    17    1
    10    15    17   ar
    11    15    14   ar
    12     1     3    1
    13     1    14    1
    14     1    25    1
    15    33    32    1
    16    34    32   ar
    17    34    25   ar
    18     3    12   ar
    19     8     9    1
    20     8    10   ar
    21    17    19   ar
    22    12    10   ar
    23    12    13    1
    24    32    30   ar
    25    10    11    1
    26    14    23   ar
    27    25    26   ar
    28    19    20    1
    29    19    21   ar
    30    30    31    1
    31    30    28   ar
    32    23    21   ar
    33    23    24    1
    34    26    27    1
    35    26    28   ar
    36    21    22    1
    37    28    29    1
