@<TRIPOS>MOLECULE
2
 35 37 0 0 0
SMALL
GASTEIGER

@<TRIPOS>ATOM
      1 SI          0.2237    6.7433   11.5468 Si      1  UNL1        0.0000
      2 O           0.9249    8.1539   11.8253 O.3     1  UNL1        0.0000
      3 C           1.2772    5.3255   12.2562 C.ar    1  UNL1        0.0000
      4 C           2.1053    5.5789   13.3479 C.ar    1  UNL1        0.0000
      5 H           2.1416    6.5814   13.7511 H       1  UNL1        0.0000
      6 C           2.8857    4.5793   13.8999 C.ar    1  UNL1        0.0000
      7 H           3.5294    4.8010   14.7395 H       1  UNL1        0.0000
      8 C           2.8448    3.2989   13.3720 C.ar    1  UNL1        0.0000
      9 H           3.4523    2.5142   13.8002 H       1  UNL1        0.0000
     10 C           2.0267    3.0293   12.2869 C.ar    1  UNL1        0.0000
     11 H           1.9964    2.0328   11.8686 H       1  UNL1        0.0000
     12 C           1.2536    4.0359   11.7351 C.ar    1  UNL1        0.0000
     13 H           0.6273    3.8221   10.8803 H       1  UNL1        0.0000
     14 C          -1.4616    6.7656   12.4291 C.ar    1  UNL1        0.0000
     15 C          -1.8581    7.9132   13.1114 C.ar    1  UNL1        0.0000
     16 H          -1.1967    8.7719   13.1220 H       1  UNL1        0.0000
     17 C          -3.0654    7.9655   13.7844 C.ar    1  UNL1        0.0000
     18 H          -3.3514    8.8653   14.3095 H       1  UNL1        0.0000
     19 C          -3.9029    6.8628   13.7836 C.ar    1  UNL1        0.0000
     20 H          -4.8490    6.8998   14.3046 H       1  UNL1        0.0000
     21 C          -3.5195    5.7079   13.1215 C.ar    1  UNL1        0.0000
     22 H          -4.1660    4.8415   13.1291 H       1  UNL1        0.0000
     23 C          -2.3077    5.6618   12.4564 C.ar    1  UNL1        0.0000
     24 H          -2.0054    4.7512   11.9593 H       1  UNL1        0.0000
     25 C           0.0801    6.5678    9.6554 C.ar    1  UNL1        0.0000
     26 C          -0.8996    5.8114    9.0214 C.ar    1  UNL1        0.0000
     27 H          -1.6460    5.3056    9.6165 H       1  UNL1        0.0000
     28 C          -0.9389    5.7051    7.6421 C.ar    1  UNL1        0.0000
     29 H          -1.7088    5.1127    7.1673 H       1  UNL1        0.0000
     30 C           0.0081    6.3558    6.8691 C.ar    1  UNL1        0.0000
     31 H          -0.0193    6.2701    5.7920 H       1  UNL1        0.0000
     32 C           0.9901    7.1168    7.4821 C.ar    1  UNL1        0.0000
     33 H           1.7333    7.6281    6.8863 H       1  UNL1        0.0000
     34 C           1.0208    7.2203    8.8608 C.ar    1  UNL1        0.0000
     35 H           1.7880    7.8165    9.3409 H       1  UNL1        0.0000
@<TRIPOS>BOND
     1    31    30    1
     2    30    32   ar
     3    30    28   ar
     4    33    32    1
     5    29    28    1
     6    32    34   ar
     7    28    26   ar
     8    34    35    1
     9    34    25   ar
    10    26    27    1
    11    26    25   ar
    12    25     1    1
    13    13    12    1
    14     1     2    1
    15     1     3    1
    16     1    14    1
    17    12     3   ar
    18    12    10   ar
    19    11    10    1
    20    24    23    1
    21     3     4   ar
    22    10     8   ar
    23    14    23   ar
    24    14    15   ar
    25    23    21   ar
    26    15    16    1
    27    15    17   ar
    28    21    22    1
    29    21    19   ar
    30     4     5    1
    31     4     6   ar
    32     8     9    1
    33     8     6   ar
    34    19    17   ar
    35    19    20    1
    36    17    18    1
    37     6     7    1
