@<TRIPOS>MOLECULE
2
 35 37 0 0 0
SMALL
GASTEIGER

@<TRIPOS>ATOM
      1 SI          6.3252    9.9698    1.6490 Si      1  UNL1        0.0000
      2 O           5.0381    9.9359    2.5881 O.3     1  UNL1        0.0000
      3 C           5.8896    9.4708   -0.1348 C.ar    1  UNL1        0.0000
      4 C           6.8763    9.2589   -1.0929 C.ar    1  UNL1        0.0000
      5 H           7.9134    9.3850   -0.8179 H       1  UNL1        0.0000
      6 C           6.5536    8.8900   -2.3864 C.ar    1  UNL1        0.0000
      7 H           7.3362    8.7297   -3.1148 H       1  UNL1        0.0000
      8 C           5.2271    8.7273   -2.7511 C.ar    1  UNL1        0.0000
      9 H           4.9731    8.4404   -3.7617 H       1  UNL1        0.0000
     10 C           4.2303    8.9407   -1.8146 C.ar    1  UNL1        0.0000
     11 H           3.1916    8.8273   -2.0921 H       1  UNL1        0.0000
     12 C           4.5643    9.3084   -0.5235 C.ar    1  UNL1        0.0000
     13 H           3.7833    9.4867    0.2010 H       1  UNL1        0.0000
     14 C           7.5484    8.7066    2.3918 C.ar    1  UNL1        0.0000
     15 C           7.9398    7.5422    1.7408 C.ar    1  UNL1        0.0000
     16 H           7.5718    7.3431    0.7439 H       1  UNL1        0.0000
     17 C           8.7971    6.6380    2.3437 C.ar    1  UNL1        0.0000
     18 H           9.0990    5.7452    1.8130 H       1  UNL1        0.0000
     19 C           9.2720    6.8795    3.6213 C.ar    1  UNL1        0.0000
     20 H           9.9466    6.1779    4.0921 H       1  UNL1        0.0000
     21 C           8.8815    8.0271    4.2912 C.ar    1  UNL1        0.0000
     22 H           9.2450    8.2218    5.2900 H       1  UNL1        0.0000
     23 C           8.0296    8.9289    3.6796 C.ar    1  UNL1        0.0000
     24 H           7.7307    9.8264    4.2019 H       1  UNL1        0.0000
     25 C           7.0196   11.7392    1.7098 C.ar    1  UNL1        0.0000
     26 C           6.3351   12.6846    2.4712 C.ar    1  UNL1        0.0000
     27 H           5.4446   12.3773    3.0110 H       1  UNL1        0.0000
     28 C           6.7800   13.9919    2.5550 C.ar    1  UNL1        0.0000
     29 H           6.2328   14.7091    3.1492 H       1  UNL1        0.0000
     30 C           7.9262   14.3756    1.8784 C.ar    1  UNL1        0.0000
     31 H           8.2775   15.3956    1.9413 H       1  UNL1        0.0000
     32 C           8.6225   13.4471    1.1224 C.ar    1  UNL1        0.0000
     33 H           9.5195   13.7426    0.5962 H       1  UNL1        0.0000
     34 C           8.1701   12.1423    1.0400 C.ar    1  UNL1        0.0000
     35 H           8.7195   11.4235    0.4494 H       1  UNL1        0.0000
@<TRIPOS>BOND
     1     9     8    1
     2     7     6    1
     3     8     6   ar
     4     8    10   ar
     5     6     4   ar
     6    11    10    1
     7    10    12   ar
     8     4     5    1
     9     4     3   ar
    10    12     3   ar
    11    12    13    1
    12     3     1    1
    13    35    34    1
    14    33    32    1
    15    16    15    1
    16    34    32   ar
    17    34    25   ar
    18    32    30   ar
    19     1    25    1
    20     1    14    1
    21     1     2    1
    22    25    26   ar
    23    15    17   ar
    24    15    14   ar
    25    18    17    1
    26    30    31    1
    27    30    28   ar
    28    17    19   ar
    29    14    23   ar
    30    26    28   ar
    31    26    27    1
    32    28    29    1
    33    19    20    1
    34    19    21   ar
    35    23    24    1
    36    23    21   ar
    37    21    22    1
