@<TRIPOS>MOLECULE
2
 35 37 0 0 0
SMALL
GASTEIGER

@<TRIPOS>ATOM
      1 SI          2.1906   12.7701    3.4661 Si      1  UNL1        0.0000
      2 O           2.9207   11.3781    3.7583 O.3     1  UNL1        0.0000
      3 C           2.0011   12.9052    1.5750 C.ar    1  UNL1        0.0000
      4 C           2.9613   12.2917    0.7727 C.ar    1  UNL1        0.0000
      5 H           3.7692   11.7470    1.2470 H       1  UNL1        0.0000
      6 C           2.8976   12.3683   -0.6067 C.ar    1  UNL1        0.0000
      7 H           3.6566   11.8889   -1.2090 H       1  UNL1        0.0000
      8 C           1.8622   13.0612   -1.2123 C.ar    1  UNL1        0.0000
      9 H           1.8088   13.1256   -2.2899 H       1  UNL1        0.0000
     10 C           0.8952   13.6719   -0.4313 C.ar    1  UNL1        0.0000
     11 H           0.0839   14.2113   -0.9002 H       1  UNL1        0.0000
     12 C           0.9680   13.5937    0.9486 C.ar    1  UNL1        0.0000
     13 H           0.2067   14.0684    1.5506 H       1  UNL1        0.0000
     14 C           3.2410   14.2174    4.1180 C.ar    1  UNL1        0.0000
     15 C           3.1986   15.4922    3.5631 C.ar    1  UNL1        0.0000
     16 H           2.5542   15.6794    2.7155 H       1  UNL1        0.0000
     17 C           3.9756   16.5178    4.0729 C.ar    1  UNL1        0.0000
     18 H           3.9308   17.5026    3.6288 H       1  UNL1        0.0000
     19 C           4.8164   16.2821    5.1483 C.ar    1  UNL1        0.0000
     20 H           5.4273   17.0816    5.5433 H       1  UNL1        0.0000
     21 C           4.8758   15.0166    5.7097 C.ar    1  UNL1        0.0000
     22 H           5.5373   14.8211    6.5419 H       1  UNL1        0.0000
     23 C           4.0913   13.9980    5.2000 C.ar    1  UNL1        0.0000
     24 H           4.1410   13.0065    5.6285 H       1  UNL1        0.0000
     25 C           0.5256   12.7397    4.3853 C.ar    1  UNL1        0.0000
     26 C          -0.3371   13.8306    4.4108 C.ar    1  UNL1        0.0000
     27 H          -0.0600   14.7361    3.8901 H       1  UNL1        0.0000
     28 C          -1.5329   13.7781    5.1039 C.ar    1  UNL1        0.0000
     29 H          -2.1928   14.6344    5.1102 H       1  UNL1        0.0000
     30 C          -1.8828   12.6301    5.7958 C.ar    1  UNL1        0.0000
     31 H          -2.8162   12.5884    6.3388 H       1  UNL1        0.0000
     32 C          -1.0281   11.5405    5.7980 C.ar    1  UNL1        0.0000
     33 H          -1.2881   10.6463    6.3457 H       1  UNL1        0.0000
     34 C           0.1630   11.5989    5.0971 C.ar    1  UNL1        0.0000
     35 H           0.8383   10.7512    5.1078 H       1  UNL1        0.0000
@<TRIPOS>BOND
     1     9     8    1
     2     8     6   ar
     3     8    10   ar
     4     7     6    1
     5    11    10    1
     6     6     4   ar
     7    10    12   ar
     8     4     5    1
     9     4     3   ar
    10    12    13    1
    11    12     3   ar
    12     3     1    1
    13    16    15    1
    14     1     2    1
    15     1    14    1
    16     1    25    1
    17    15    17   ar
    18    15    14   ar
    19    18    17    1
    20    27    26    1
    21    17    19   ar
    22    14    23   ar
    23    25    26   ar
    24    25    34   ar
    25    26    28   ar
    26    34    35    1
    27    34    32   ar
    28    28    29    1
    29    28    30   ar
    30    19    20    1
    31    19    21   ar
    32    23    24    1
    33    23    21   ar
    34    21    22    1
    35    30    32   ar
    36    30    31    1
    37    32    33    1
