@<TRIPOS>MOLECULE
2
 35 37 0 0 0
SMALL
GASTEIGER

@<TRIPOS>ATOM
      1 SI          2.0718    8.4897    6.7499 Si      1  UNL1        0.0000
      2 O           2.7351    9.1856    5.4781 O.3     1  UNL1        0.0000
      3 C           2.3039    9.6477    8.2331 C.ar    1  UNL1        0.0000
      4 C           2.6763   10.9651    7.9738 C.ar    1  UNL1        0.0000
      5 H           2.8051   11.2746    6.9425 H       1  UNL1        0.0000
      6 C           2.8944   11.8602    9.0044 C.ar    1  UNL1        0.0000
      7 H           3.1896   12.8757    8.7832 H       1  UNL1        0.0000
      8 C           2.7373   11.4519   10.3189 C.ar    1  UNL1        0.0000
      9 H           2.9092   12.1470   11.1283 H       1  UNL1        0.0000
     10 C           2.3600   10.1482   10.5942 C.ar    1  UNL1        0.0000
     11 H           2.2359    9.8266   11.6191 H       1  UNL1        0.0000
     12 C           2.1463    9.2559    9.5581 C.ar    1  UNL1        0.0000
     13 H           1.8589    8.2370    9.7804 H       1  UNL1        0.0000
     14 C           2.9745    6.8159    6.9502 C.ar    1  UNL1        0.0000
     15 C           3.9049    6.5701    7.9538 C.ar    1  UNL1        0.0000
     16 H           4.0885    7.3290    8.7010 H       1  UNL1        0.0000
     17 C           4.5926    5.3706    8.0168 C.ar    1  UNL1        0.0000
     18 H           5.3070    5.1979    8.8093 H       1  UNL1        0.0000
     19 C           4.3655    4.3907    7.0660 C.ar    1  UNL1        0.0000
     20 H           4.8983    3.4515    7.1159 H       1  UNL1        0.0000
     21 C           3.4458    4.6172    6.0559 C.ar    1  UNL1        0.0000
     22 H           3.2612    3.8553    5.3110 H       1  UNL1        0.0000
     23 C           2.7602    5.8170    6.0041 C.ar    1  UNL1        0.0000
     24 H           2.0353    5.9826    5.2182 H       1  UNL1        0.0000
     25 C           0.2301    8.1453    6.4089 C.ar    1  UNL1        0.0000
     26 C          -0.7110    8.0464    7.4283 C.ar    1  UNL1        0.0000
     27 H          -0.3934    8.1760    8.4526 H       1  UNL1        0.0000
     28 C          -2.0439    7.7988    7.1503 C.ar    1  UNL1        0.0000
     29 H          -2.7605    7.7287    7.9566 H       1  UNL1        0.0000
     30 C          -2.4628    7.6476    5.8389 C.ar    1  UNL1        0.0000
     31 H          -3.5041    7.4596    5.6198 H       1  UNL1        0.0000
     32 C          -1.5410    7.7436    4.8102 C.ar    1  UNL1        0.0000
     33 H          -1.8617    7.6306    3.7838 H       1  UNL1        0.0000
     34 C          -0.2107    7.9871    5.0983 C.ar    1  UNL1        0.0000
     35 H           0.5062    8.0678    4.2918 H       1  UNL1        0.0000
@<TRIPOS>BOND
     1    33    32    1
     2    35    34    1
     3    32    34   ar
     4    32    30   ar
     5    34    25   ar
     6    24    23    1
     7    22    21    1
     8     2     1    1
     9    31    30    1
    10    30    28   ar
    11    23    21   ar
    12    23    14   ar
    13    21    19   ar
    14    25     1    1
    15    25    26   ar
    16     1    14    1
    17     1     3    1
    18     5     4    1
    19    14    15   ar
    20    19    20    1
    21    19    17   ar
    22    28    26   ar
    23    28    29    1
    24    26    27    1
    25    15    17   ar
    26    15    16    1
    27     4     3   ar
    28     4     6   ar
    29    17    18    1
    30     3    12   ar
    31     7     6    1
    32     6     8   ar
    33    12    13    1
    34    12    10   ar
    35     8    10   ar
    36     8     9    1
    37    10    11    1
