@<TRIPOS>MOLECULE
2
 35 37 0 0 0
SMALL
GASTEIGER

@<TRIPOS>ATOM
      1 SI         -0.3144    3.8982   10.7519 Si      1  UNL1        0.0000
      2 O           1.1267    4.2352   10.1431 O.3     1  UNL1        0.0000
      3 C          -1.5256    3.7797    9.2872 C.ar    1  UNL1        0.0000
      4 C          -1.0426    3.3167    8.0643 C.ar    1  UNL1        0.0000
      5 H           0.0077    3.0603    7.9779 H       1  UNL1        0.0000
      6 C          -1.8767    3.1866    6.9689 C.ar    1  UNL1        0.0000
      7 H          -1.4833    2.8228    6.0311 H       1  UNL1        0.0000
      8 C          -3.2162    3.5225    7.0790 C.ar    1  UNL1        0.0000
      9 H          -3.8715    3.4226    6.2256 H       1  UNL1        0.0000
     10 C          -3.7131    3.9870    8.2856 C.ar    1  UNL1        0.0000
     11 H          -4.7575    4.2515    8.3734 H       1  UNL1        0.0000
     12 C          -2.8730    4.1119    9.3784 C.ar    1  UNL1        0.0000
     13 H          -3.2631    4.4790   10.3172 H       1  UNL1        0.0000
     14 C          -0.2951    2.2289   11.6660 C.ar    1  UNL1        0.0000
     15 C          -1.4585    1.5078   11.9166 C.ar    1  UNL1        0.0000
     16 H          -2.4051    1.8927   11.5643 H       1  UNL1        0.0000
     17 C          -1.4192    0.3044   12.5981 C.ar    1  UNL1        0.0000
     18 H          -2.3332   -0.2418   12.7845 H       1  UNL1        0.0000
     19 C          -0.2086   -0.2041   13.0397 C.ar    1  UNL1        0.0000
     20 H          -0.1779   -1.1450   13.5707 H       1  UNL1        0.0000
     21 C           0.9610    0.4954   12.7911 C.ar    1  UNL1        0.0000
     22 H           1.9124    0.1035   13.1233 H       1  UNL1        0.0000
     23 C           0.9131    1.7001   12.1129 C.ar    1  UNL1        0.0000
     24 H           1.8243    2.2432   11.9077 H       1  UNL1        0.0000
     25 C          -0.7367    5.2917   11.9747 C.ar    1  UNL1        0.0000
     26 C          -1.7402    5.1819   12.9310 C.ar    1  UNL1        0.0000
     27 H          -2.3407    4.2842   12.9665 H       1  UNL1        0.0000
     28 C          -1.9672    6.1965   13.8437 C.ar    1  UNL1        0.0000
     29 H          -2.7496    6.0936   14.5824 H       1  UNL1        0.0000
     30 C          -1.1876    7.3411   13.8185 C.ar    1  UNL1        0.0000
     31 H          -1.3595    8.1295   14.5369 H       1  UNL1        0.0000
     32 C          -0.1829    7.4684   12.8742 C.ar    1  UNL1        0.0000
     33 H           0.4368    8.3539   12.8520 H       1  UNL1        0.0000
     34 C           0.0333    6.4512   11.9634 C.ar    1  UNL1        0.0000
     35 H           0.8306    6.5365   11.2353 H       1  UNL1        0.0000
@<TRIPOS>BOND
     1     7     6    1
     2     9     8    1
     3     6     8   ar
     4     6     4   ar
     5     8    10   ar
     6     5     4    1
     7     4     3   ar
     8    10    11    1
     9    10    12   ar
    10     3    12   ar
    11     3     1    1
    12    12    13    1
    13     2     1    1
    14     1    14    1
    15     1    25    1
    16    35    34    1
    17    16    15    1
    18    14    15   ar
    19    14    23   ar
    20    24    23    1
    21    15    17   ar
    22    34    25   ar
    23    34    32   ar
    24    25    26   ar
    25    23    21   ar
    26    17    18    1
    27    17    19   ar
    28    21    19   ar
    29    21    22    1
    30    33    32    1
    31    32    30   ar
    32    26    27    1
    33    26    28   ar
    34    19    20    1
    35    30    28   ar
    36    30    31    1
    37    28    29    1
