@<TRIPOS>MOLECULE
2
 35 37 0 0 0
SMALL
GASTEIGER

@<TRIPOS>ATOM
      1 SI          2.8243    2.4346    6.7999 Si      1  UNL1        0.0000
      2 O           2.6881    3.4595    8.0237 O.3     1  UNL1        0.0000
      3 C           2.5462    0.6920    7.4909 C.ar    1  UNL1        0.0000
      4 C           2.8527   -0.4706    6.7912 C.ar    1  UNL1        0.0000
      5 H           3.2607   -0.3973    5.7924 H       1  UNL1        0.0000
      6 C           2.6485   -1.7163    7.3579 C.ar    1  UNL1        0.0000
      7 H           2.8948   -2.6101    6.8018 H       1  UNL1        0.0000
      8 C           2.1303   -1.8181    8.6384 C.ar    1  UNL1        0.0000
      9 H           1.9729   -2.7909    9.0816 H       1  UNL1        0.0000
     10 C           1.8154   -0.6706    9.3475 C.ar    1  UNL1        0.0000
     11 H           1.4087   -0.7407   10.3459 H       1  UNL1        0.0000
     12 C           2.0220    0.5715    8.7764 C.ar    1  UNL1        0.0000
     13 H           1.7843    1.4726    9.3325 H       1  UNL1        0.0000
     14 C           4.5913    2.7144    6.1285 C.ar    1  UNL1        0.0000
     15 C           4.9032    3.9472    5.5595 C.ar    1  UNL1        0.0000
     16 H           4.1227    4.6866    5.4372 H       1  UNL1        0.0000
     17 C           6.1880    4.2424    5.1410 C.ar    1  UNL1        0.0000
     18 H           6.4054    5.2066    4.7031 H       1  UNL1        0.0000
     19 C           7.1942    3.3018    5.2851 C.ar    1  UNL1        0.0000
     20 H           8.1991    3.5280    4.9586 H       1  UNL1        0.0000
     21 C           6.9037    2.0686    5.8430 C.ar    1  UNL1        0.0000
     22 H           7.6839    1.3288    5.9531 H       1  UNL1        0.0000
     23 C           5.6150    1.7816    6.2594 C.ar    1  UNL1        0.0000
     24 H           5.3972    0.8145    6.6903 H       1  UNL1        0.0000
     25 C           1.5629    2.8936    5.4499 C.ar    1  UNL1        0.0000
     26 C           1.1732    4.2219    5.3023 C.ar    1  UNL1        0.0000
     27 H           1.5830    4.9644    5.9740 H       1  UNL1        0.0000
     28 C           0.2716    4.6048    4.3267 C.ar    1  UNL1        0.0000
     29 H          -0.0186    5.6421    4.2340 H       1  UNL1        0.0000
     30 C          -0.2592    3.6557    3.4692 C.ar    1  UNL1        0.0000
     31 H          -0.9644    3.9485    2.7048 H       1  UNL1        0.0000
     32 C           0.1139    2.3282    3.6008 C.ar    1  UNL1        0.0000
     33 H          -0.3022    1.5832    2.9375 H       1  UNL1        0.0000
     34 C           1.0149    1.9543    4.5826 C.ar    1  UNL1        0.0000
     35 H           1.2939    0.9160    4.6855 H       1  UNL1        0.0000
@<TRIPOS>BOND
     1    31    30    1
     2    33    32    1
     3    30    32   ar
     4    30    28   ar
     5    32    34   ar
     6    29    28    1
     7    28    26   ar
     8    34    35    1
     9    34    25   ar
    10    18    17    1
    11    20    19    1
    12    17    19   ar
    13    17    15   ar
    14    19    21   ar
    15    26    25   ar
    16    26    27    1
    17    16    15    1
    18    25     1    1
    19    15    14   ar
    20     5     4    1
    21    21    22    1
    22    21    23   ar
    23    14    23   ar
    24    14     1    1
    25    23    24    1
    26     4     6   ar
    27     4     3   ar
    28     1     3    1
    29     1     2    1
    30     7     6    1
    31     6     8   ar
    32     3    12   ar
    33     8     9    1
    34     8    10   ar
    35    12    13    1
    36    12    10   ar
    37    10    11    1
