@<TRIPOS>MOLECULE
2
 35 37 0 0 0
SMALL
GASTEIGER

@<TRIPOS>ATOM
      1 SI          3.8693    6.9322   11.7858 Si      1  UNL1        0.0000
      2 O           3.2314    5.9789   10.6633 O.3     1  UNL1        0.0000
      3 C           5.7456    6.6935   11.5419 C.ar    1  UNL1        0.0000
      4 C           6.2939    5.4322   11.7641 C.ar    1  UNL1        0.0000
      5 H           5.6628    4.6476   12.1558 H       1  UNL1        0.0000
      6 C           7.6263    5.1735   11.4966 C.ar    1  UNL1        0.0000
      7 H           8.0301    4.1875   11.6777 H       1  UNL1        0.0000
      8 C           8.4393    6.1780   10.9980 C.ar    1  UNL1        0.0000
      9 H           9.4821    5.9822   10.7928 H       1  UNL1        0.0000
     10 C           7.9090    7.4351   10.7636 C.ar    1  UNL1        0.0000
     11 H           8.5373    8.2226   10.3720 H       1  UNL1        0.0000
     12 C           6.5739    7.6867   11.0299 C.ar    1  UNL1        0.0000
     13 H           6.1679    8.6689   10.8346 H       1  UNL1        0.0000
     14 C           3.3827    8.7517   11.5476 C.ar    1  UNL1        0.0000
     15 C           4.0389    9.7641   12.2415 C.ar    1  UNL1        0.0000
     16 H           4.8465    9.5050   12.9111 H       1  UNL1        0.0000
     17 C           3.6794   11.0903   12.0841 C.ar    1  UNL1        0.0000
     18 H           4.2036   11.8611   12.6310 H       1  UNL1        0.0000
     19 C           2.6484   11.4321   11.2245 C.ar    1  UNL1        0.0000
     20 H           2.3670   12.4676   11.0991 H       1  UNL1        0.0000
     21 C           1.9801   10.4394   10.5290 C.ar    1  UNL1        0.0000
     22 H           1.1712   10.6963    9.8595 H       1  UNL1        0.0000
     23 C           2.3468    9.1165   10.6947 C.ar    1  UNL1        0.0000
     24 H           1.8146    8.3448   10.1568 H       1  UNL1        0.0000
     25 C           3.1772    6.2966   13.4410 C.ar    1  UNL1        0.0000
     26 C           2.4636    5.0997   13.4278 C.ar    1  UNL1        0.0000
     27 H           2.3797    4.5580   12.4909 H       1  UNL1        0.0000
     28 C           1.8573    4.6144   14.5716 C.ar    1  UNL1        0.0000
     29 H           1.3008    3.6884   14.5344 H       1  UNL1        0.0000
     30 C           1.9575    5.3233   15.7574 C.ar    1  UNL1        0.0000
     31 H           1.4806    4.9527   16.6532 H       1  UNL1        0.0000
     32 C           2.6683    6.5114   15.7904 C.ar    1  UNL1        0.0000
     33 H           2.7473    7.0673   16.7140 H       1  UNL1        0.0000
     34 C           3.2703    6.9928   14.6412 C.ar    1  UNL1        0.0000
     35 H           3.8128    7.9265   14.6727 H       1  UNL1        0.0000
@<TRIPOS>BOND
     1    22    21    1
     2    24    23    1
     3    11    10    1
     4    21    23   ar
     5    21    19   ar
     6     2     1    1
     7    23    14   ar
     8    10     8   ar
     9    10    12   ar
    10     9     8    1
    11    13    12    1
    12     8     6   ar
    13    12     3   ar
    14    20    19    1
    15    19    17   ar
    16     6     7    1
    17     6     4   ar
    18     3     4   ar
    19     3     1    1
    20    14     1    1
    21    14    15   ar
    22     4     5    1
    23     1    25    1
    24    17    15   ar
    25    17    18    1
    26    15    16    1
    27    27    26    1
    28    26    25   ar
    29    26    28   ar
    30    25    34   ar
    31    29    28    1
    32    28    30   ar
    33    34    35    1
    34    34    32   ar
    35    30    32   ar
    36    30    31    1
    37    32    33    1
