@<TRIPOS>MOLECULE
1
 12 12 0 0 0
SMALL
GASTEIGER

@<TRIPOS>ATOM
      1 O           1.8550    3.7819    3.6567 O.3     1  UNL1       -0.2816
      2 C           2.5948    4.3585    2.7774 C.ar    1  UNL1        0.2547
      3 C           2.4854    5.7176    2.4053 C.ar    1  UNL1        0.2107
      4 F           1.5505    6.4765    3.0080 F       1  UNL1       -0.1982
      5 C           3.3121    6.2792    1.4474 C.ar    1  UNL1        0.2002
      6 F           3.1752    7.5695    1.1229 F       1  UNL1       -0.1992
      7 C           4.2902    5.5147    0.8136 C.ar    1  UNL1        0.1993
      8 F           5.0834    6.0683   -0.1145 F       1  UNL1       -0.1993
      9 C           4.4382    4.1718    1.1540 C.ar    1  UNL1        0.2002
     10 F           5.3726    3.4222    0.5583 F       1  UNL1       -0.1992
     11 C           3.6052    3.6315    2.1111 C.ar    1  UNL1        0.2107
     12 F           3.6987    2.3269    2.4972 F       1  UNL1       -0.1982
@<TRIPOS>BOND
     1     8     7    1
     2    10     9    1
     3     7     9   ar
     4     7     5   ar
     5     6     5    1
     6     9    11   ar
     7     5     3   ar
     8    11    12    1
     9    11     2   ar
    10     3     2   ar
    11     3     4    1
    12     2     1    1
