@<TRIPOS>MOLECULE
1
 13 13 0 0 0
SMALL
GASTEIGER

@<TRIPOS>ATOM
      1 O           6.2909    9.8103    9.5920 O.3     1  UNL1       -0.3798
      2 C           6.6766   11.1087    9.1353 C.3     1  UNL1        0.0477
      3 C           6.3350   11.1292    7.6511 C.3     1  UNL1       -0.0274
      4 C           6.7403    9.7172    7.2313 C.3     1  UNL1       -0.0274
      5 C           6.4999    8.8885    8.5010 C.3     1  UNL1        0.0477
      6 H           6.1295   11.8506    9.7183 H       1  UNL1        0.0560
      7 H           7.7567   11.2475    9.2811 H       1  UNL1        0.0560
      8 H           6.8726   11.9033    7.1103 H       1  UNL1        0.0288
      9 H           5.2637   11.2778    7.5162 H       1  UNL1        0.0288
     10 H           6.1580    9.3498    6.3902 H       1  UNL1        0.0288
     11 H           7.7937    9.6914    6.9535 H       1  UNL1        0.0288
     12 H           5.6010    8.2694    8.4289 H       1  UNL1        0.0560
     13 H           7.3553    8.2454    8.7295 H       1  UNL1        0.0560
@<TRIPOS>BOND
     1    10     4    1
     2    11     4    1
     3     8     3    1
     4     4     3    1
     5     4     5    1
     6     9     3    1
     7     3     2    1
     8    12     5    1
     9     5    13    1
    10     5     1    1
    11     2     7    1
    12     2     1    1
    13     2     6    1
