@<TRIPOS>MOLECULE
1
 13 13 0 0 0
SMALL
GASTEIGER

@<TRIPOS>ATOM
      1 O           6.9488   10.5746   12.9385 O.3     1  UNL1       -0.3798
      2 C           7.1596   11.9614   12.6307 C.3     1  UNL1        0.0477
      3 C           7.9069   12.5591   13.8177 C.3     1  UNL1       -0.0274
      4 C           8.7759   11.3790   14.2419 C.3     1  UNL1       -0.0274
      5 C           7.8339   10.2007   14.0168 C.3     1  UNL1        0.0477
      6 H           6.1871   12.4274   12.4475 H       1  UNL1        0.0560
      7 H           7.7698   12.0343   11.7214 H       1  UNL1        0.0560
      8 H           7.2153   12.8299   14.6165 H       1  UNL1        0.0288
      9 H           8.4830   13.4374   13.5396 H       1  UNL1        0.0288
     10 H           9.6488   11.3024   13.5936 H       1  UNL1        0.0288
     11 H           9.1088   11.4432   15.2741 H       1  UNL1        0.0288
     12 H           8.3577    9.2836   13.7406 H       1  UNL1        0.0560
     13 H           7.2264   10.0079   14.9076 H       1  UNL1        0.0560
@<TRIPOS>BOND
     1     7     2    1
     2     6     2    1
     3     2     1    1
     4     2     3    1
     5     1     5    1
     6     9     3    1
     7    10     4    1
     8    12     5    1
     9     3     4    1
    10     3     8    1
    11     5     4    1
    12     5    13    1
    13     4    11    1
