@<TRIPOS>MOLECULE
1
 13 13 0 0 0
SMALL
GASTEIGER

@<TRIPOS>ATOM
      1 O           3.8176   10.3158   13.5389 O.3     1  UNL1       -0.3798
      2 C           4.2987   10.7622   14.8208 C.3     1  UNL1        0.0477
      3 C           3.0905   11.2193   15.6389 C.3     1  UNL1       -0.0274
      4 C           1.9361   10.5008   14.9460 C.3     1  UNL1       -0.0274
      5 C           2.3986   10.5305   13.4962 C.3     1  UNL1        0.0477
      6 H           5.0169   11.5737   14.6663 H       1  UNL1        0.0560
      7 H           4.7942    9.9094   15.2957 H       1  UNL1        0.0560
      8 H           2.9621   12.2999   15.5709 H       1  UNL1        0.0288
      9 H           3.1914   10.9395   16.6841 H       1  UNL1        0.0288
     10 H           1.8684    9.4728   15.3034 H       1  UNL1        0.0288
     11 H           0.9795   10.9975   15.0843 H       1  UNL1        0.0288
     12 H           1.9596    9.7517   12.8724 H       1  UNL1        0.0560
     13 H           2.1951   11.5115   13.0472 H       1  UNL1        0.0560
@<TRIPOS>BOND
     1    12     5    1
     2    13     5    1
     3     5     1    1
     4     5     4    1
     5     1     2    1
     6     6     2    1
     7     2     7    1
     8     2     3    1
     9     4    11    1
    10     4    10    1
    11     4     3    1
    12     8     3    1
    13     3     9    1
