@<TRIPOS>MOLECULE
1
 13 13 0 0 0
SMALL
GASTEIGER

@<TRIPOS>ATOM
      1 O          -1.0351    7.3226    4.2884 O.3     1  UNL1       -0.3798
      2 C           0.0393    7.9579    5.0083 C.3     1  UNL1        0.0477
      3 H          -0.1141    7.8001    6.0836 H       1  UNL1        0.0560
      4 H           0.0152    9.0269    4.7940 H       1  UNL1        0.0560
      5 C           1.3213    7.2744    4.5506 C.3     1  UNL1       -0.0274
      6 H           2.1155    7.3584    5.2874 H       1  UNL1        0.0288
      7 H           1.6630    7.7004    3.6072 H       1  UNL1        0.0288
      8 C           0.8345    5.8428    4.3474 C.3     1  UNL1       -0.0274
      9 H           1.4703    5.2617    3.6844 H       1  UNL1        0.0288
     10 H           0.7582    5.3300    5.3064 H       1  UNL1        0.0288
     11 C          -0.5526    6.0724    3.7546 C.3     1  UNL1        0.0477
     12 H          -0.5022    6.1573    2.6623 H       1  UNL1        0.0560
     13 H          -1.2644    5.2863    4.0134 H       1  UNL1        0.0560
@<TRIPOS>BOND
     1    12    11    1
     2     7     5    1
     3     9     8    1
     4    11    13    1
     5    11     1    1
     6    11     8    1
     7     1     2    1
     8     8     5    1
     9     8    10    1
    10     5     2    1
    11     5     6    1
    12     4     2    1
    13     2     3    1
