@<TRIPOS>MOLECULE
1
 13 13 0 0 0
SMALL
GASTEIGER

@<TRIPOS>ATOM
      1 O          -1.0894    7.2467    4.3547 O.3     1  UNL1       -0.3798
      2 C          -0.0980    7.8041    5.2170 C.3     1  UNL1        0.0477
      3 H          -0.0182    7.1863    6.1229 H       1  UNL1        0.0560
      4 H          -0.4028    8.8165    5.4800 H       1  UNL1        0.0560
      5 C           1.2030    7.7593    4.4128 C.3     1  UNL1       -0.0274
      6 H           2.0711    7.6671    5.0606 H       1  UNL1        0.0288
      7 H           1.2986    8.6720    3.8275 H       1  UNL1        0.0288
      8 C           1.0132    6.5373    3.4993 C.3     1  UNL1       -0.0274
      9 H           1.1858    6.7975    2.4570 H       1  UNL1        0.0288
     10 H           1.6849    5.7229    3.7636 H       1  UNL1        0.0288
     11 C          -0.4517    6.1303    3.7329 C.3     1  UNL1        0.0477
     12 H          -0.9955    5.9011    2.8152 H       1  UNL1        0.0560
     13 H          -0.5033    5.2633    4.4065 H       1  UNL1        0.0560
@<TRIPOS>BOND
     1     9     8    1
     2    12    11    1
     3     8    11    1
     4     8    10    1
     5     8     5    1
     6    11     1    1
     7    11    13    1
     8     7     5    1
     9     1     2    1
    10     5     6    1
    11     5     2    1
    12     2     4    1
    13     2     3    1
