@<TRIPOS>MOLECULE
1
 14 14 0 0 0
SMALL
GASTEIGER

@<TRIPOS>ATOM
      1 O           4.9535   11.9279   11.7869 O.3     1  UNL1       -0.3752
      2 C           6.3457   12.1663   11.5501 C.3     1  UNL1        0.0711
      3 H           6.9121   11.8984   12.4524 H       1  UNL1        0.0583
      4 H           6.4625   13.2293   11.3303 H       1  UNL1        0.0583
      5 C           6.8436   11.3219   10.3770 C.3     1  UNL1        0.0711
      6 H           6.3093   11.6192    9.4639 H       1  UNL1        0.0583
      7 H           7.9154   11.4614   10.2345 H       1  UNL1        0.0583
      8 O           6.6414    9.9498   10.6355 O.3     1  UNL1       -0.3752
      9 C           5.2712    9.7039   10.8579 C.3     1  UNL1        0.0711
     10 H           5.1745    8.6372   11.0640 H       1  UNL1        0.0583
     11 H           4.6910    9.9662    9.9610 H       1  UNL1        0.0583
     12 C           4.7709   10.5321   12.0427 C.3     1  UNL1        0.0711
     13 H           3.7038   10.3733   12.2119 H       1  UNL1        0.0583
     14 H           5.3388   10.2534   12.9421 H       1  UNL1        0.0583
@<TRIPOS>BOND
     1     6     5    1
     2    11     9    1
     3     7     5    1
     4     5     8    1
     5     5     2    1
     6     8     9    1
     7     9    10    1
     8     9    12    1
     9     4     2    1
    10     2     1    1
    11     2     3    1
    12     1    12    1
    13    12    13    1
    14    12    14    1
