@<TRIPOS>MOLECULE
1
 13 13 0 0 0
SMALL
GASTEIGER

@<TRIPOS>ATOM
      1 O           2.3209    4.0147    6.0188 O.3     1  UNL1       -0.3798
      2 C           1.8998    2.9083    6.8374 C.3     1  UNL1        0.0477
      3 H           2.2078    3.1016    7.8715 H       1  UNL1        0.0560
      4 H           2.3822    1.9999    6.4694 H       1  UNL1        0.0560
      5 C           0.3810    2.8492    6.7383 C.3     1  UNL1       -0.0274
      6 H          -0.0687    2.3803    7.6100 H       1  UNL1        0.0288
      7 H           0.0848    2.3041    5.8420 H       1  UNL1        0.0288
      8 C           0.0330    4.3271    6.6034 C.3     1  UNL1       -0.0274
      9 H           0.0607    4.8159    7.5787 H       1  UNL1        0.0288
     10 H          -0.9397    4.4983    6.1502 H       1  UNL1        0.0288
     11 C           1.1703    4.8239    5.7172 C.3     1  UNL1        0.0477
     12 H           0.9240    4.6910    4.6572 H       1  UNL1        0.0560
     13 H           1.4253    5.8712    5.9042 H       1  UNL1        0.0560
@<TRIPOS>BOND
     1    12    11    1
     2    11    13    1
     3    11     1    1
     4    11     8    1
     5     7     5    1
     6     1     2    1
     7    10     8    1
     8     4     2    1
     9     8     5    1
    10     8     9    1
    11     5     2    1
    12     5     6    1
    13     2     3    1
