@<TRIPOS>MOLECULE
1
 13 13 0 0 0
SMALL
GASTEIGER

@<TRIPOS>ATOM
      1 O           6.9481    5.0631    3.7546 O.3     1  UNL1       -0.3798
      2 C           6.8571    6.0306    2.7128 C.3     1  UNL1        0.0477
      3 C           6.7988    7.3776    3.4238 C.3     1  UNL1       -0.0274
      4 C           7.7689    7.1623    4.5873 C.3     1  UNL1       -0.0274
      5 C           7.7721    5.6346    4.7755 C.3     1  UNL1        0.0477
      6 H           5.9658    5.8080    2.1287 H       1  UNL1        0.0560
      7 H           7.7560    5.9775    2.0785 H       1  UNL1        0.0560
      8 H           5.7895    7.5516    3.7940 H       1  UNL1        0.0288
      9 H           7.0873    8.2027    2.7775 H       1  UNL1        0.0288
     10 H           8.7662    7.5191    4.3307 H       1  UNL1        0.0288
     11 H           7.4405    7.6743    5.4878 H       1  UNL1        0.0288
     12 H           8.7931    5.2381    4.6848 H       1  UNL1        0.0560
     13 H           7.3508    5.3328    5.7345 H       1  UNL1        0.0560
@<TRIPOS>BOND
     1     7     2    1
     2     6     2    1
     3     2     3    1
     4     2     1    1
     5     9     3    1
     6     3     8    1
     7     3     4    1
     8     1     5    1
     9    10     4    1
    10     4     5    1
    11     4    11    1
    12    12     5    1
    13     5    13    1
