@<TRIPOS>MOLECULE
1
 13 13 0 0 0
SMALL
GASTEIGER

@<TRIPOS>ATOM
      1 O           3.4590    0.2014    3.2720 O.3     1  UNL1       -0.3798
      2 C           3.3104   -0.3030    1.9490 C.3     1  UNL1        0.0477
      3 C           4.7356   -0.6324    1.4874 C.3     1  UNL1       -0.0274
      4 C           5.4498   -0.9925    2.8014 C.3     1  UNL1       -0.0274
      5 C           4.3957   -0.6795    3.8800 C.3     1  UNL1        0.0477
      6 H           2.8050    0.4526    1.3497 H       1  UNL1        0.0560
      7 H           2.7012   -1.2155    1.9717 H       1  UNL1        0.0560
      8 H           5.1975    0.2379    1.0214 H       1  UNL1        0.0288
      9 H           4.7455   -1.4489    0.7699 H       1  UNL1        0.0288
     10 H           5.7402   -2.0403    2.8339 H       1  UNL1        0.0288
     11 H           6.3460   -0.3886    2.9390 H       1  UNL1        0.0288
     12 H           3.8820   -1.5973    4.1921 H       1  UNL1        0.0560
     13 H           4.8051   -0.1827    4.7592 H       1  UNL1        0.0560
@<TRIPOS>BOND
     1     9     3    1
     2     8     3    1
     3     6     2    1
     4     3     2    1
     5     3     4    1
     6     2     7    1
     7     2     1    1
     8     4    10    1
     9     4    11    1
    10     4     5    1
    11     1     5    1
    12     5    12    1
    13     5    13    1
