@<TRIPOS>MOLECULE
1
 13 13 0 0 0
SMALL
GASTEIGER

@<TRIPOS>ATOM
      1 O           9.1778    1.6586   10.0524 O.3     1  UNL1       -0.3798
      2 C           9.0040    1.2798   11.4126 C.3     1  UNL1        0.0477
      3 H           9.1735    0.1973   11.5116 H       1  UNL1        0.0560
      4 H           7.9817    1.5114   11.7062 H       1  UNL1        0.0560
      5 C          10.0707    2.0637   12.1811 C.3     1  UNL1       -0.0274
      6 H          10.3744    1.5499   13.0902 H       1  UNL1        0.0288
      7 H           9.6894    3.0501   12.4405 H       1  UNL1        0.0288
      8 C          11.2099    2.1932   11.1574 C.3     1  UNL1       -0.0274
      9 H          11.4979    3.2352   11.0400 H       1  UNL1        0.0288
     10 H          12.0867    1.6131   11.4388 H       1  UNL1        0.0288
     11 C          10.5895    1.6584    9.8559 C.3     1  UNL1        0.0477
     12 H          10.8112    2.2810    8.9867 H       1  UNL1        0.0560
     13 H          10.9243    0.6287    9.6616 H       1  UNL1        0.0560
@<TRIPOS>BOND
     1    12    11    1
     2    13    11    1
     3    11     1    1
     4    11     8    1
     5     1     2    1
     6     9     8    1
     7     8    10    1
     8     8     5    1
     9     2     3    1
    10     2     4    1
    11     2     5    1
    12     5     7    1
    13     5     6    1
