@<TRIPOS>MOLECULE
1
 13 13 0 0 0
SMALL
GASTEIGER

@<TRIPOS>ATOM
      1 O          -2.1555   -0.9796   -5.0191 O.3     1  UNL1       -0.3798
      2 C          -1.2321   -0.4728   -5.9809 C.3     1  UNL1        0.0477
      3 H          -1.2277   -1.1341   -6.8592 H       1  UNL1        0.0560
      4 H          -0.2416   -0.4736   -5.5229 H       1  UNL1        0.0560
      5 C          -1.7223    0.9329   -6.3657 C.3     1  UNL1       -0.0274
      6 H          -1.1145    1.6983   -5.8886 H       1  UNL1        0.0288
      7 H          -1.6769    1.0764   -7.4437 H       1  UNL1        0.0288
      8 C          -3.1651    0.9802   -5.8390 C.3     1  UNL1       -0.0274
      9 H          -3.2342    1.6473   -4.9815 H       1  UNL1        0.0288
     10 H          -3.8762    1.3048   -6.5952 H       1  UNL1        0.0288
     11 C          -3.4268   -0.4622   -5.4016 C.3     1  UNL1        0.0477
     12 H          -4.0943   -0.5421   -4.5428 H       1  UNL1        0.0560
     13 H          -3.8267   -1.0552   -6.2370 H       1  UNL1        0.0560
@<TRIPOS>BOND
     1     7     5    1
     2     3     2    1
     3    10     8    1
     4     5     2    1
     5     5     6    1
     6     5     8    1
     7    13    11    1
     8     2     4    1
     9     2     1    1
    10     8    11    1
    11     8     9    1
    12    11     1    1
    13    11    12    1
