@<TRIPOS>MOLECULE
1
 13 13 0 0 0
SMALL
GASTEIGER

@<TRIPOS>ATOM
      1 O          28.6242   11.0888    8.0207 O.3     1  UNL1       -0.3798
      2 C          27.5686   10.2000    8.3783 C.3     1  UNL1        0.0477
      3 H          26.6212   10.7553    8.4076 H       1  UNL1        0.0560
      4 H          27.5108    9.4280    7.6102 H       1  UNL1        0.0560
      5 C          27.9181    9.6499    9.7723 C.3     1  UNL1       -0.0274
      6 H          28.3119    8.6379    9.7031 H       1  UNL1        0.0288
      7 H          27.0397    9.6328   10.4144 H       1  UNL1        0.0288
      8 C          28.9909   10.6223   10.2901 C.3     1  UNL1       -0.0274
      9 H          28.7655   11.0101   11.2806 H       1  UNL1        0.0288
     10 H          29.9641   10.1347   10.3230 H       1  UNL1        0.0288
     11 C          28.9952   11.7319    9.2348 C.3     1  UNL1        0.0477
     12 H          28.2499   12.5008    9.4860 H       1  UNL1        0.0560
     13 H          29.9686   12.2013    9.0909 H       1  UNL1        0.0560
@<TRIPOS>BOND
     1     4     2    1
     2     1     2    1
     3     1    11    1
     4     2     3    1
     5     2     5    1
     6    13    11    1
     7    11    12    1
     8    11     8    1
     9     6     5    1
    10     5     8    1
    11     5     7    1
    12     8    10    1
    13     8     9    1
