@<TRIPOS>MOLECULE
5
 41 41 0 0 0
SMALL
GASTEIGER

@<TRIPOS>ATOM
      1 SI          2.7473    3.2380   -2.3164 Si      1  UNL1        0.0000
      2 SI          1.2712    1.3865   -2.4204 Si      1  UNL1        0.0000
      3 SI          4.9969    2.5203   -2.5379 Si      1  UNL1        0.0000
      4 SI          2.1378    4.9850   -3.8032 Si      1  UNL1        0.0000
      5 O           2.6203    3.8987   -0.8631 O.3     1  UNL1        0.0000
      6 C          -0.5700    1.6615   -1.9194 C.3     1  UNL1        0.0000
      7 C           1.2121    0.7842   -4.2379 C.3     1  UNL1        0.0000
      8 C           1.8311   -0.1420   -1.3933 C.3     1  UNL1        0.0000
      9 C           5.7683    2.0710   -0.8367 C.3     1  UNL1        0.0000
     10 C           5.1465    0.9483   -3.6296 C.3     1  UNL1        0.0000
     11 C           6.1942    3.7630   -3.4003 C.3     1  UNL1        0.0000
     12 C           3.1099    4.8851   -5.4521 C.3     1  UNL1        0.0000
     13 C           0.2905    4.9444   -4.3545 C.3     1  UNL1        0.0000
     14 C           2.4330    6.7301   -3.0581 C.3     1  UNL1        0.0000
     15 H          -1.0221    2.4492   -2.5150 H       1  UNL1        0.0000
     16 H          -0.6547    1.9517   -0.8763 H       1  UNL1        0.0000
     17 H          -1.1691    0.7646   -2.0595 H       1  UNL1        0.0000
     18 H           0.8603    1.5637   -4.9057 H       1  UNL1        0.0000
     19 H           0.5529   -0.0696   -4.3582 H       1  UNL1        0.0000
     20 H           2.1960    0.4856   -4.5822 H       1  UNL1        0.0000
     21 H           2.8114   -0.4831   -1.7123 H       1  UNL1        0.0000
     22 H           1.1469   -0.9810   -1.4936 H       1  UNL1        0.0000
     23 H           1.9030    0.0961   -0.3358 H       1  UNL1        0.0000
     24 H           5.4315    2.7884   -0.0940 H       1  UNL1        0.0000
     25 H           6.8557    2.0672   -0.8388 H       1  UNL1        0.0000
     26 H           5.4398    1.0893   -0.5078 H       1  UNL1        0.0000
     27 H           4.7677    1.1389   -4.6287 H       1  UNL1        0.0000
     28 H           4.5910    0.1083   -3.2265 H       1  UNL1        0.0000
     29 H           6.1810    0.6355   -3.7320 H       1  UNL1        0.0000
     30 H           5.9580    4.7964   -3.1681 H       1  UNL1        0.0000
     31 H           6.1357    3.6513   -4.4788 H       1  UNL1        0.0000
     32 H           7.2305    3.5936   -3.1186 H       1  UNL1        0.0000
     33 H           4.1776    5.0069   -5.3081 H       1  UNL1        0.0000
     34 H           2.7850    5.6486   -6.1520 H       1  UNL1        0.0000
     35 H           2.9537    3.9222   -5.9277 H       1  UNL1        0.0000
     36 H           0.0077    3.9511   -4.6908 H       1  UNL1        0.0000
     37 H           0.1120    5.6266   -5.1817 H       1  UNL1        0.0000
     38 H          -0.3875    5.2207   -3.5531 H       1  UNL1        0.0000
     39 H           3.4793    7.0170   -3.1217 H       1  UNL1        0.0000
     40 H           2.1621    6.7292   -2.0041 H       1  UNL1        0.0000
     41 H           1.8519    7.5075   -3.5488 H       1  UNL1        0.0000
@<TRIPOS>BOND
     1    34    12    1
     2    35    12    1
     3    12    33    1
     4    12     4    1
     5    37    13    1
     6    18     7    1
     7    36    13    1
     8    27    10    1
     9    20     7    1
    10    31    11    1
    11    19     7    1
    12    13     4    1
    13    13    38    1
    14     7     2    1
    15     4    14    1
    16     4     1    1
    17    29    10    1
    18    10    28    1
    19    10     3    1
    20    41    14    1
    21    11    30    1
    22    11    32    1
    23    11     3    1
    24    39    14    1
    25    14    40    1
    26     3     1    1
    27     3     9    1
    28    15     6    1
    29     2     1    1
    30     2     6    1
    31     2     8    1
    32     1     5    1
    33    17     6    1
    34     6    16    1
    35    21     8    1
    36    22     8    1
    37     8    23    1
    38    25     9    1
    39     9    26    1
    40     9    24    1
    41     1     7    0
