@<TRIPOS>MOLECULE
13
 13 13 0 0 0
SMALL
GASTEIGER

@<TRIPOS>ATOM
      1 C          26.7597    7.4306   23.9927 C.3     1  UNL1        0.0477
      2 H          26.9462    7.5676   22.9177 H       1  UNL1        0.0560
      3 H          27.0150    6.4107   24.2782 H       1  UNL1        0.0560
      4 C          27.4977    8.5031   24.8004 C.3     1  UNL1       -0.0274
      5 H          28.4482    8.7711   24.3456 H       1  UNL1        0.0288
      6 H          27.6843    8.1440   25.8115 H       1  UNL1        0.0288
      7 C          26.4962    9.6694   24.8148 C.3     1  UNL1       -0.0274
      8 H          26.3345   10.0334   25.8271 H       1  UNL1        0.0288
      9 H          26.8383   10.5033   24.2044 H       1  UNL1        0.0288
     10 C          25.2133    9.0525   24.2249 C.3     1  UNL1        0.0477
     11 H          24.3032    9.2920   24.7725 H       1  UNL1        0.0560
     12 H          25.0932    9.3718   23.1817 H       1  UNL1        0.0560
     13 O          25.3833    7.6426   24.2742 O.3     1  UNL1       -0.3798
@<TRIPOS>BOND
     1     2     1    1
     2    12    10    1
     3     1    13    1
     4     1     3    1
     5     1     4    1
     6     9     7    1
     7    10    13    1
     8    10    11    1
     9    10     7    1
    10     5     4    1
    11     4     7    1
    12     4     6    1
    13     7     8    1
