@<TRIPOS>MOLECULE
1
 13 13 0 0 0
SMALL
GASTEIGER

@<TRIPOS>ATOM
      1 O           5.1624    1.9773   13.4492 O.3     1  UNL1       -0.3798
      2 C           6.2039    1.5860   12.5536 C.3     1  UNL1        0.0477
      3 H           5.7530    0.9681   11.7758 H       1  UNL1        0.0560
      4 H           6.9482    0.9942   13.1030 H       1  UNL1        0.0560
      5 C           6.8384    2.8779   12.0106 C.3     1  UNL1       -0.0274
      6 H           7.9245    2.8138   12.0376 H       1  UNL1        0.0288
      7 H           6.5343    3.0617   10.9824 H       1  UNL1        0.0288
      8 C           6.3074    3.9719   12.9484 C.3     1  UNL1       -0.0274
      9 H           5.5725    4.5908   12.4366 H       1  UNL1        0.0288
     10 H           7.0961    4.6140   13.3332 H       1  UNL1        0.0288
     11 C           5.6331    3.1734   14.0657 C.3     1  UNL1        0.0477
     12 H           6.3580    2.9195   14.8524 H       1  UNL1        0.0560
     13 H           4.7819    3.6894   14.5082 H       1  UNL1        0.0560
@<TRIPOS>BOND
     1     7     5    1
     2     3     2    1
     3     5     6    1
     4     5     2    1
     5     5     8    1
     6     9     8    1
     7     2     4    1
     8     2     1    1
     9     8    10    1
    10     8    11    1
    11     1    11    1
    12    11    13    1
    13    11    12    1
