@<TRIPOS>MOLECULE
1
 13 13 0 0 0
SMALL
GASTEIGER

@<TRIPOS>ATOM
      1 O           3.0948    0.0778    2.2782 O.3     1  UNL1       -0.3798
      2 C           3.1528   -0.4611    0.9468 C.3     1  UNL1        0.0477
      3 H           4.1945   -0.7196    0.7165 H       1  UNL1        0.0560
      4 H           2.8116    0.3086    0.2531 H       1  UNL1        0.0560
      5 C           2.2790   -1.7100    0.9537 C.3     1  UNL1       -0.0274
      6 H           2.5633   -2.4168    0.1788 H       1  UNL1        0.0288
      7 H           1.2302   -1.4414    0.8253 H       1  UNL1        0.0288
      8 C           2.5245   -2.2318    2.3660 C.3     1  UNL1       -0.0274
      9 H           1.7428   -2.8985    2.7211 H       1  UNL1        0.0288
     10 H           3.4831   -2.7487    2.4157 H       1  UNL1        0.0288
     11 C           2.5777   -0.9312    3.1617 C.3     1  UNL1        0.0477
     12 H           1.5705   -0.6315    3.4774 H       1  UNL1        0.0560
     13 H           3.2252   -0.9930    4.0403 H       1  UNL1        0.0560
@<TRIPOS>BOND
     1     6     5    1
     2     4     2    1
     3     3     2    1
     4     7     5    1
     5     2     5    1
     6     2     1    1
     7     5     8    1
     8     1    11    1
     9     8    10    1
    10     8     9    1
    11     8    11    1
    12    11    12    1
    13    11    13    1
