@<TRIPOS>MOLECULE
1
 13 13 0 0 0
SMALL
GASTEIGER

@<TRIPOS>ATOM
      1 O           4.7737    1.5805   10.9270 O.3     1  UNL1       -0.3798
      2 C           4.6920    2.6699   11.8418 C.3     1  UNL1        0.0477
      3 H           5.0452    2.3431   12.8298 H       1  UNL1        0.0560
      4 H           3.6493    2.9797   11.9128 H       1  UNL1        0.0560
      5 C           5.6212    3.7536   11.2796 C.3     1  UNL1       -0.0274
      6 H           5.0639    4.4451   10.6497 H       1  UNL1        0.0288
      7 H           6.0938    4.3219   12.0777 H       1  UNL1        0.0288
      8 C           6.6362    2.9531   10.4456 C.3     1  UNL1       -0.0274
      9 H           7.6545    3.0708   10.8101 H       1  UNL1        0.0288
     10 H           6.6039    3.2584    9.4017 H       1  UNL1        0.0288
     11 C           6.1573    1.5021   10.5939 C.3     1  UNL1        0.0477
     12 H           6.6989    1.0033   11.4102 H       1  UNL1        0.0560
     13 H           6.2497    0.9175    9.6786 H       1  UNL1        0.0560
@<TRIPOS>BOND
     1    10     8    1
     2    13    11    1
     3     8    11    1
     4     8     9    1
     5     8     5    1
     6    11     1    1
     7    11    12    1
     8     6     5    1
     9     1     2    1
    10     5     2    1
    11     5     7    1
    12     2     4    1
    13     2     3    1
