@<TRIPOS>MOLECULE
1
 13 13 0 0 0
SMALL
GASTEIGER

@<TRIPOS>ATOM
      1 O           7.8992    2.0434    8.0324 O.3     1  UNL1       -0.3798
      2 C           8.4847    2.1563    6.7278 C.3     1  UNL1        0.0477
      3 H           8.4716    3.2084    6.4327 H       1  UNL1        0.0560
      4 H           7.8820    1.5797    6.0139 H       1  UNL1        0.0560
      5 C           9.8891    1.5745    6.8370 C.3     1  UNL1       -0.0274
      6 H          10.2642    1.2184    5.8811 H       1  UNL1        0.0288
      7 H          10.5802    2.3171    7.2374 H       1  UNL1        0.0288
      8 C           9.6639    0.4578    7.8515 C.3     1  UNL1       -0.0274
      9 H          10.5755    0.1450    8.3545 H       1  UNL1        0.0288
     10 H           9.2109   -0.4067    7.3658 H       1  UNL1        0.0288
     11 C           8.6701    1.1092    8.8087 C.3     1  UNL1        0.0477
     12 H           7.9866    0.3910    9.2664 H       1  UNL1        0.0560
     13 H           9.1941    1.6645    9.5964 H       1  UNL1        0.0560
@<TRIPOS>BOND
     1     6     5    1
     2     4     2    1
     3     3     2    1
     4     2     5    1
     5     2     1    1
     6     5     7    1
     7     5     8    1
     8    10     8    1
     9     8     9    1
    10     8    11    1
    11     1    11    1
    12    11    12    1
    13    11    13    1
