@<TRIPOS>MOLECULE
1
 22 21 0 0 0
SMALL
GASTEIGER

@<TRIPOS>ATOM
      1 O           8.4637    2.3087    4.1450 O.2     1  UNL1       -0.2457
      2 O          10.4322    1.4213    4.9371 O.2     1  UNL1       -0.4589
      3 C           9.7887    2.3916    4.2014 C.2     1  UNL1        0.3309
      4 C           9.6471    0.6377    5.8251 C.3     1  UNL1        0.0978
      5 H           8.7396    0.3009    5.2984 H       1  UNL1        0.0728
      6 C           9.2487    1.4567    7.0543 C.3     1  UNL1       -0.0280
      7 H           8.7071    2.3480    6.7420 H       1  UNL1        0.0265
      8 H          10.1404    1.7633    7.5970 H       1  UNL1        0.0265
      9 H           8.6154    0.8662    7.7113 H       1  UNL1        0.0265
     10 C          10.4971   -0.5669    6.2096 C.3     1  UNL1       -0.0280
     11 H          10.7928   -1.1104    5.3172 H       1  UNL1        0.0265
     12 H           9.9350   -1.2275    6.8638 H       1  UNL1        0.0265
     13 H          11.3952   -0.2334    6.7227 H       1  UNL1        0.0265
     14 C          10.5358    3.3377    3.6067 C.2     1  UNL1        0.0082
     15 C          12.0310    3.3588    3.7482 C.3     1  UNL1       -0.0370
     16 H          12.3489    2.6524    4.5073 H       1  UNL1        0.0277
     17 H          12.3693    4.3585    4.0218 H       1  UNL1        0.0277
     18 H          12.5104    3.0914    2.8056 H       1  UNL1        0.0277
     19 C           9.9485    4.3995    2.7187 C.3     1  UNL1       -0.0370
     20 H           8.8858    4.2140    2.5155 H       1  UNL1        0.0277
     21 H          10.4884    4.4247    1.7707 H       1  UNL1        0.0277
     22 H          10.0524    5.3883    3.1718 H       1  UNL1        0.0277
@<TRIPOS>BOND
     1    21    19    1
     2    20    19    1
     3    19    22    1
     4    19    14    1
     5    18    15    1
     6    14    15    1
     7    14     3    2
     8    15    17    1
     9    15    16    1
    10     1     3    1
    11     3     2    1
    12     2     4    1
    13     5     4    1
    14    11    10    1
    15     4    10    1
    16     4     6    1
    17    10    13    1
    18    10    12    1
    19     7     6    1
    20     6     8    1
    21     6     9    1
