@<TRIPOS>MOLECULE
1
 22 21 0 0 0
SMALL
GASTEIGER

@<TRIPOS>ATOM
      1 O           6.7103    4.6143    2.7116 O.2     1  UNL1       -0.2457
      2 O           6.2373    6.8252    2.3321 O.2     1  UNL1       -0.4589
      3 C           6.7556    5.8632    3.1710 C.2     1  UNL1        0.3309
      4 C           7.2940    6.2568    4.3385 C.2     1  UNL1        0.0082
      5 C           7.9892    5.3204    5.2889 C.3     1  UNL1       -0.0370
      6 H           8.0093    4.2966    4.8952 H       1  UNL1        0.0277
      7 H           7.4807    5.3267    6.2570 H       1  UNL1        0.0277
      8 H           9.0147    5.6543    5.4630 H       1  UNL1        0.0277
      9 C           7.2763    7.6983    4.7646 C.3     1  UNL1       -0.0370
     10 H           6.6933    8.2937    4.0704 H       1  UNL1        0.0277
     11 H           8.2896    8.0999    4.7970 H       1  UNL1        0.0277
     12 H           6.8509    7.7915    5.7646 H       1  UNL1        0.0277
     13 C           4.9689    6.5437    1.7432 C.3     1  UNL1        0.0978
     14 H           4.9443    5.4842    1.4487 H       1  UNL1        0.0728
     15 C           4.8462    7.4276    0.5088 C.3     1  UNL1       -0.0280
     16 H           5.6632    7.2202   -0.1759 H       1  UNL1        0.0265
     17 H           4.8964    8.4733    0.8008 H       1  UNL1        0.0265
     18 H           3.9002    7.2414    0.0079 H       1  UNL1        0.0265
     19 C           3.8462    6.8214    2.7446 C.3     1  UNL1       -0.0280
     20 H           3.9777    6.2097    3.6344 H       1  UNL1        0.0265
     21 H           2.8820    6.5924    2.2981 H       1  UNL1        0.0265
     22 H           3.8612    7.8685    3.0381 H       1  UNL1        0.0265
@<TRIPOS>BOND
     1    16    15    1
     2    18    15    1
     3    15    17    1
     4    15    13    1
     5    14    13    1
     6    13     2    1
     7    13    19    1
     8    21    19    1
     9     2     3    1
    10     1     3    1
    11    19    22    1
    12    19    20    1
    13     3     4    2
    14    10     9    1
    15     4     9    1
    16     4     5    1
    17     9    11    1
    18     9    12    1
    19     6     5    1
    20     5     8    1
    21     5     7    1
