@<TRIPOS>MOLECULE
1
 13 13 0 0 0
SMALL
GASTEIGER

@<TRIPOS>ATOM
      1 O           5.1163   12.9560    3.3659 O.3     1  UNL1       -0.3798
      2 C           4.1837   13.6260    4.2311 C.3     1  UNL1        0.0477
      3 H           3.8145   14.5128    3.7112 H       1  UNL1        0.0560
      4 H           3.3490   12.9470    4.4396 H       1  UNL1        0.0560
      5 C           4.9498   13.9505    5.5069 C.3     1  UNL1       -0.0274
      6 H           4.2897   14.0779    6.3608 H       1  UNL1        0.0288
      7 H           5.5453   14.8553    5.3769 H       1  UNL1        0.0288
      8 C           5.8530   12.7272    5.6224 C.3     1  UNL1       -0.0274
      9 H           6.7371   12.9008    6.2307 H       1  UNL1        0.0288
     10 H           5.2935   11.8860    6.0316 H       1  UNL1        0.0288
     11 C           6.2043   12.4530    4.1624 C.3     1  UNL1        0.0477
     12 H           6.3218   11.3846    3.9637 H       1  UNL1        0.0560
     13 H           7.1154   12.9844    3.8627 H       1  UNL1        0.0560
@<TRIPOS>BOND
     1     1    11    1
     2     1     2    1
     3     3     2    1
     4    13    11    1
     5    12    11    1
     6    11     8    1
     7     2     4    1
     8     2     5    1
     9     7     5    1
    10     5     8    1
    11     5     6    1
    12     8    10    1
    13     8     9    1
