@<TRIPOS>MOLECULE
2
 41 40 0 0 0
SMALL
GASTEIGER

@<TRIPOS>ATOM
      1 SI          5.5323   -4.1765   15.7513 Si      1  UNL1        0.0000
      2 O           6.6401   -4.9446   14.8249 O.3     1  UNL1        0.0000
      3 C           6.4520   -2.7903   16.7844 C.3     1  UNL1        0.0000
      4 C           5.4791   -1.7932   17.4168 C.3     1  UNL1        0.0000
      5 H           4.9221   -1.2461   16.6630 H       1  UNL1        0.0000
      6 H           6.0278   -1.0675   18.0171 H       1  UNL1        0.0000
      7 H           4.7670   -2.2975   18.0635 H       1  UNL1        0.0000
      8 C           7.2847   -3.4015   17.9152 C.3     1  UNL1        0.0000
      9 H           6.6526   -3.8343   18.6848 H       1  UNL1        0.0000
     10 H           7.8935   -2.6294   18.3867 H       1  UNL1        0.0000
     11 H           7.9506   -4.1653   17.5254 H       1  UNL1        0.0000
     12 C           7.4352   -2.0307   15.8891 C.3     1  UNL1        0.0000
     13 H           6.9253   -1.4524   15.1280 H       1  UNL1        0.0000
     14 H           8.1035   -2.7333   15.3997 H       1  UNL1        0.0000
     15 H           8.0328   -1.3431   16.4879 H       1  UNL1        0.0000
     16 C           4.2204   -3.4443   14.4894 C.3     1  UNL1        0.0000
     17 C           2.8641   -3.1740   15.1442 C.3     1  UNL1        0.0000
     18 H           2.9652   -2.4885   15.9811 H       1  UNL1        0.0000
     19 H           2.4067   -4.0896   15.5057 H       1  UNL1        0.0000
     20 H           2.1831   -2.7266   14.4203 H       1  UNL1        0.0000
     21 C           4.0307   -4.4253   13.3278 C.3     1  UNL1        0.0000
     22 H           4.9966   -4.6623   12.8837 H       1  UNL1        0.0000
     23 H           3.3957   -3.9825   12.5604 H       1  UNL1        0.0000
     24 H           3.5684   -5.3509   13.6491 H       1  UNL1        0.0000
     25 C           4.6950   -2.1295   13.8613 C.3     1  UNL1        0.0000
     26 H           3.9851   -1.8101   13.0975 H       1  UNL1        0.0000
     27 H           4.7645   -1.3336   14.5959 H       1  UNL1        0.0000
     28 H           5.6633   -2.2570   13.3859 H       1  UNL1        0.0000
     29 C           4.8214   -5.6108   16.8845 C.3     1  UNL1        0.0000
     30 C           3.9945   -6.5663   16.0227 C.3     1  UNL1        0.0000
     31 H           3.0933   -6.0931   15.6453 H       1  UNL1        0.0000
     32 H           3.6905   -7.4358   16.6064 H       1  UNL1        0.0000
     33 H           4.6009   -6.9092   15.1861 H       1  UNL1        0.0000
     34 C           3.9513   -5.1140   18.0401 C.3     1  UNL1        0.0000
     35 H           4.5268   -4.5110   18.7366 H       1  UNL1        0.0000
     36 H           3.5426   -5.9613   18.5908 H       1  UNL1        0.0000
     37 H           3.1216   -4.5150   17.6773 H       1  UNL1        0.0000
     38 C           5.9630   -6.4558   17.4608 C.3     1  UNL1        0.0000
     39 H           5.5604   -7.3569   17.9247 H       1  UNL1        0.0000
     40 H           6.5265   -5.9188   18.2151 H       1  UNL1        0.0000
     41 H           6.6447   -6.7639   16.6635 H       1  UNL1        0.0000
@<TRIPOS>BOND
     1    23    21    1
     2    22    21    1
     3    26    25    1
     4    21    24    1
     5    21    16    1
     6    28    25    1
     7    25    16    1
     8    25    27    1
     9    20    17    1
    10    16    17    1
    11    16     1    1
    12     2     1    1
    13    13    12    1
    14    17    19    1
    15    17    18    1
    16    33    30    1
    17    14    12    1
    18    31    30    1
    19     1     3    1
    20     1    29    1
    21    12    15    1
    22    12     3    1
    23    30    32    1
    24    30    29    1
    25     5     4    1
    26    41    38    1
    27     3     4    1
    28     3     8    1
    29    29    38    1
    30    29    34    1
    31     4     6    1
    32     4     7    1
    33    38    39    1
    34    38    40    1
    35    11     8    1
    36    37    34    1
    37     8    10    1
    38     8     9    1
    39    34    36    1
    40    34    35    1
