@<TRIPOS>MOLECULE
2
 41 40 0 0 0
SMALL
GASTEIGER

@<TRIPOS>ATOM
      1 SI          6.2179   -9.2213   12.6460 Si      1  UNL1        0.0000
      2 O           6.8147   -7.9227   13.3850 O.3     1  UNL1        0.0000
      3 C           4.5010   -8.7325   11.8279 C.3     1  UNL1        0.0000
      4 C           4.0039   -9.7474   10.7971 C.3     1  UNL1        0.0000
      5 H           3.8868  -10.7306   11.2439 H       1  UNL1        0.0000
      6 H           4.6844   -9.8346    9.9567 H       1  UNL1        0.0000
      7 H           3.0341   -9.4360   10.4064 H       1  UNL1        0.0000
      8 C           4.6428   -7.3637   11.1544 C.3     1  UNL1        0.0000
      9 H           5.1289   -6.6695   11.8352 H       1  UNL1        0.0000
     10 H           3.6629   -6.9654   10.8892 H       1  UNL1        0.0000
     11 H           5.2338   -7.4243   10.2483 H       1  UNL1        0.0000
     12 C           3.3950   -8.5888   12.8754 C.3     1  UNL1        0.0000
     13 H           2.4803   -8.2229   12.4058 H       1  UNL1        0.0000
     14 H           3.1637   -9.5400   13.3448 H       1  UNL1        0.0000
     15 H           3.6872   -7.8810   13.6417 H       1  UNL1        0.0000
     16 C           7.5020   -9.7821   11.2654 C.3     1  UNL1        0.0000
     17 C           7.3227  -11.2289   10.7999 C.3     1  UNL1        0.0000
     18 H           6.3279  -11.3911   10.3956 H       1  UNL1        0.0000
     19 H           8.0476  -11.4618   10.0187 H       1  UNL1        0.0000
     20 H           7.4774  -11.9313   11.6131 H       1  UNL1        0.0000
     21 C           8.9189   -9.6252   11.8238 C.3     1  UNL1        0.0000
     22 H           9.6589   -9.7036   11.0264 H       1  UNL1        0.0000
     23 H           9.0261   -8.6533   12.3057 H       1  UNL1        0.0000
     24 H           9.1371  -10.3979   12.5516 H       1  UNL1        0.0000
     25 C           7.4254   -8.8934   10.0206 C.3     1  UNL1        0.0000
     26 H           8.2570   -9.1183    9.3504 H       1  UNL1        0.0000
     27 H           7.4812   -7.8459   10.2957 H       1  UNL1        0.0000
     28 H           6.5082   -9.0618    9.4654 H       1  UNL1        0.0000
     29 C           6.0268  -10.5694   14.0610 C.3     1  UNL1        0.0000
     30 C           5.1350  -11.7480   13.6703 C.3     1  UNL1        0.0000
     31 H           4.1134  -11.4279   13.4886 H       1  UNL1        0.0000
     32 H           5.5020  -12.2381   12.7735 H       1  UNL1        0.0000
     33 H           5.1145  -12.4848   14.4746 H       1  UNL1        0.0000
     34 C           5.4465   -9.9142   15.3177 C.3     1  UNL1        0.0000
     35 H           5.4458  -10.6220   16.1480 H       1  UNL1        0.0000
     36 H           4.4272   -9.5814   15.1585 H       1  UNL1        0.0000
     37 H           6.0490   -9.0545   15.5997 H       1  UNL1        0.0000
     38 C           7.3955  -11.1269   14.4601 C.3     1  UNL1        0.0000
     39 H           7.3077  -11.7327   15.3634 H       1  UNL1        0.0000
     40 H           8.0870  -10.3148   14.6604 H       1  UNL1        0.0000
     41 H           7.8106  -11.7594   13.6813 H       1  UNL1        0.0000
@<TRIPOS>BOND
     1    26    25    1
     2    28    25    1
     3     6     4    1
     4    19    17    1
     5    25    27    1
     6    25    16    1
     7    11     8    1
     8    18    17    1
     9     7     4    1
    10     4     5    1
    11     4     3    1
    12    17    16    1
    13    17    20    1
    14    10     8    1
    15    22    21    1
    16     8     3    1
    17     8     9    1
    18    16    21    1
    19    16     1    1
    20    21    23    1
    21    21    24    1
    22     3     1    1
    23     3    12    1
    24    13    12    1
    25     1     2    1
    26     1    29    1
    27    32    30    1
    28    12    14    1
    29    12    15    1
    30    31    30    1
    31    30    29    1
    32    30    33    1
    33    41    38    1
    34    29    38    1
    35    29    34    1
    36    38    40    1
    37    38    39    1
    38    36    34    1
    39    34    37    1
    40    34    35    1
