@<TRIPOS>MOLECULE
2
 41 40 0 0 0
SMALL
GASTEIGER

@<TRIPOS>ATOM
      1 SI         10.9274   -7.0499   15.4932 Si      1  UNL1        0.0000
      2 O           9.5635   -6.8341   14.6264 O.3     1  UNL1        0.0000
      3 C          12.0517   -8.2403   14.4266 C.3     1  UNL1        0.0000
      4 C          13.5026   -8.2886   14.9085 C.3     1  UNL1        0.0000
      5 H          14.0669   -9.0081   14.3153 H       1  UNL1        0.0000
      6 H          13.5583   -8.5915   15.9503 H       1  UNL1        0.0000
      7 H          13.9893   -7.3232   14.8089 H       1  UNL1        0.0000
      8 C          12.0297   -7.7974   12.9586 C.3     1  UNL1        0.0000
      9 H          12.5943   -6.8842   12.8078 H       1  UNL1        0.0000
     10 H          12.4692   -8.5697   12.3278 H       1  UNL1        0.0000
     11 H          11.0068   -7.6265   12.6317 H       1  UNL1        0.0000
     12 C          11.5023   -9.6689   14.4709 C.3     1  UNL1        0.0000
     13 H          11.6275  -10.1094   15.4558 H       1  UNL1        0.0000
     14 H          10.4500   -9.6769   14.2086 H       1  UNL1        0.0000
     15 H          12.0364  -10.2978   13.7583 H       1  UNL1        0.0000
     16 C          10.3057   -7.8391   17.1773 C.3     1  UNL1        0.0000
     17 C          11.4187   -8.4884   18.0011 C.3     1  UNL1        0.0000
     18 H          12.2009   -7.7727   18.2370 H       1  UNL1        0.0000
     19 H          11.8699   -9.3195   17.4676 H       1  UNL1        0.0000
     20 H          11.0154   -8.8727   18.9382 H       1  UNL1        0.0000
     21 C           9.6324   -6.7716   18.0443 C.3     1  UNL1        0.0000
     22 H           9.1324   -7.2373   18.8944 H       1  UNL1        0.0000
     23 H           8.8870   -6.2340   17.4624 H       1  UNL1        0.0000
     24 H          10.3552   -6.0634   18.4380 H       1  UNL1        0.0000
     25 C           9.2344   -8.8939   16.8798 C.3     1  UNL1        0.0000
     26 H           9.6656   -9.7825   16.4327 H       1  UNL1        0.0000
     27 H           8.4855   -8.4931   16.1955 H       1  UNL1        0.0000
     28 H           8.7319   -9.1945   17.7997 H       1  UNL1        0.0000
     29 C          11.7333   -5.2760   15.7480 C.3     1  UNL1        0.0000
     30 C          12.7787   -5.2588   16.8662 C.3     1  UNL1        0.0000
     31 H          12.3359   -5.4924   17.8295 H       1  UNL1        0.0000
     32 H          13.2306   -4.2694   16.9389 H       1  UNL1        0.0000
     33 H          13.5692   -5.9779   16.6732 H       1  UNL1        0.0000
     34 C          12.4232   -4.7919   14.4687 C.3     1  UNL1        0.0000
     35 H          13.2907   -5.3992   14.2312 H       1  UNL1        0.0000
     36 H          12.7678   -3.7652   14.5980 H       1  UNL1        0.0000
     37 H          11.7340   -4.8155   13.6304 H       1  UNL1        0.0000
     38 C          10.6505   -4.2416   16.0755 C.3     1  UNL1        0.0000
     39 H          10.2803   -4.3600   17.0871 H       1  UNL1        0.0000
     40 H          11.0567   -3.2334   15.9910 H       1  UNL1        0.0000
     41 H           9.8146   -4.3356   15.3815 H       1  UNL1        0.0000
@<TRIPOS>BOND
     1    10     8    1
     2    11     8    1
     3     9     8    1
     4     8     3    1
     5    37    34    1
     6    15    12    1
     7    14    12    1
     8    35    34    1
     9     5     4    1
    10     3    12    1
    11     3     4    1
    12     3     1    1
    13    34    36    1
    14    34    29    1
    15    12    13    1
    16     2     1    1
    17     7     4    1
    18     4     6    1
    19    41    38    1
    20     1    29    1
    21     1    16    1
    22    29    38    1
    23    29    30    1
    24    40    38    1
    25    38    39    1
    26    27    25    1
    27    26    25    1
    28    33    30    1
    29    30    32    1
    30    30    31    1
    31    25    16    1
    32    25    28    1
    33    16    17    1
    34    16    21    1
    35    23    21    1
    36    19    17    1
    37    17    18    1
    38    17    20    1
    39    21    24    1
    40    21    22    1
