@<TRIPOS>MOLECULE
2
 41 40 0 0 0
SMALL
GASTEIGER

@<TRIPOS>ATOM
      1 SI         24.7683   25.9246   30.4104 Si      1  UNL1        0.0000
      2 O          24.2556   26.2038   28.8954 O.3     1  UNL1        0.0000
      3 C          26.5594   25.1603   30.1433 C.3     1  UNL1        0.0000
      4 C          27.3796   24.9711   31.4195 C.3     1  UNL1        0.0000
      5 H          28.3294   24.4900   31.1837 H       1  UNL1        0.0000
      6 H          26.8533   24.3464   32.1355 H       1  UNL1        0.0000
      7 H          27.6003   25.9224   31.8941 H       1  UNL1        0.0000
      8 C          27.3492   26.0396   29.1665 C.3     1  UNL1        0.0000
      9 H          28.2355   25.5095   28.8159 H       1  UNL1        0.0000
     10 H          27.6780   26.9611   29.6327 H       1  UNL1        0.0000
     11 H          26.7275   26.2882   28.3001 H       1  UNL1        0.0000
     12 C          26.4162   23.7991   29.4642 C.3     1  UNL1        0.0000
     13 H          27.3943   23.4111   29.1764 H       1  UNL1        0.0000
     14 H          25.8128   23.9178   28.5620 H       1  UNL1        0.0000
     15 H          25.9513   23.0665   30.1172 H       1  UNL1        0.0000
     16 C          24.8660   27.5593   31.4920 C.3     1  UNL1        0.0000
     17 C          24.9818   27.2259   32.9817 C.3     1  UNL1        0.0000
     18 H          25.1100   28.1431   33.5569 H       1  UNL1        0.0000
     19 H          25.8352   26.5838   33.1776 H       1  UNL1        0.0000
     20 H          24.0907   26.7284   33.3503 H       1  UNL1        0.0000
     21 C          26.0789   28.4215   31.1263 C.3     1  UNL1        0.0000
     22 H          26.0244   29.3728   31.6570 H       1  UNL1        0.0000
     23 H          26.1040   28.6310   30.0617 H       1  UNL1        0.0000
     24 H          27.0081   27.9410   31.4163 H       1  UNL1        0.0000
     25 C          23.6344   28.4445   31.2886 C.3     1  UNL1        0.0000
     26 H          23.7247   29.3493   31.8909 H       1  UNL1        0.0000
     27 H          22.7211   27.9402   31.5809 H       1  UNL1        0.0000
     28 H          23.5471   28.7379   30.2466 H       1  UNL1        0.0000
     29 C          23.4615   24.6232   31.0986 C.3     1  UNL1        0.0000
     30 C          24.0021   23.7465   32.2302 C.3     1  UNL1        0.0000
     31 H          23.2147   23.0900   32.6021 H       1  UNL1        0.0000
     32 H          24.3525   24.3548   33.0594 H       1  UNL1        0.0000
     33 H          24.8246   23.1205   31.8964 H       1  UNL1        0.0000
     34 C          22.9917   23.7177   29.9518 C.3     1  UNL1        0.0000
     35 H          22.1808   23.0720   30.2932 H       1  UNL1        0.0000
     36 H          23.7923   23.0783   29.5901 H       1  UNL1        0.0000
     37 H          22.6091   24.3222   29.1228 H       1  UNL1        0.0000
     38 C          22.2104   25.3357   31.6200 C.3     1  UNL1        0.0000
     39 H          21.4326   24.6064   31.8523 H       1  UNL1        0.0000
     40 H          21.8238   26.0183   30.8697 H       1  UNL1        0.0000
     41 H          22.4157   25.8932   32.5287 H       1  UNL1        0.0000
@<TRIPOS>BOND
     1    11     8    1
     2    14    12    1
     3     9     8    1
     4     2     1    1
     5    37    34    1
     6     8    10    1
     7     8     3    1
     8    13    12    1
     9    12    15    1
    10    12     3    1
    11    36    34    1
    12    34    35    1
    13    34    29    1
    14    23    21    1
    15     3     1    1
    16     3     4    1
    17    28    25    1
    18     1    29    1
    19     1    16    1
    20    40    38    1
    21    29    38    1
    22    29    30    1
    23    21    24    1
    24    21    16    1
    25    21    22    1
    26     5     4    1
    27    25    16    1
    28    25    27    1
    29    25    26    1
    30     4     7    1
    31     4     6    1
    32    16    17    1
    33    38    39    1
    34    38    41    1
    35    33    30    1
    36    30    31    1
    37    30    32    1
    38    17    19    1
    39    17    20    1
    40    17    18    1
