@<TRIPOS>MOLECULE
2
 41 40 0 0 0
SMALL
GASTEIGER

@<TRIPOS>ATOM
      1 SI         24.8271   23.6532   24.4987 Si      1  UNL1        0.0000
      2 O          24.3350   24.8544   25.4808 O.3     1  UNL1        0.0000
      3 C          26.7952   23.7099   24.5424 C.3     1  UNL1        0.0000
      4 C          27.4405   22.3727   24.1716 C.3     1  UNL1        0.0000
      5 H          28.5268   22.4661   24.1861 H       1  UNL1        0.0000
      6 H          27.1429   22.0584   23.1756 H       1  UNL1        0.0000
      7 H          27.1664   21.5887   24.8711 H       1  UNL1        0.0000
      8 C          27.2564   24.1061   25.9483 C.3     1  UNL1        0.0000
      9 H          28.3228   24.3339   25.9459 H       1  UNL1        0.0000
     10 H          27.0919   23.3020   26.6569 H       1  UNL1        0.0000
     11 H          26.7142   24.9969   26.2852 H       1  UNL1        0.0000
     12 C          27.3594   24.7724   23.5942 C.3     1  UNL1        0.0000
     13 H          28.4408   24.8417   23.7203 H       1  UNL1        0.0000
     14 H          26.9320   25.7463   23.8124 H       1  UNL1        0.0000
     15 H          27.1702   24.5241   22.5549 H       1  UNL1        0.0000
     16 C          24.1366   23.8911   22.6791 C.3     1  UNL1        0.0000
     17 C          24.3051   25.3341   22.1934 C.3     1  UNL1        0.0000
     18 H          23.8599   25.4434   21.2040 H       1  UNL1        0.0000
     19 H          25.3477   25.6211   22.1207 H       1  UNL1        0.0000
     20 H          23.8011   26.0182   22.8684 H       1  UNL1        0.0000
     21 C          24.8324   22.9615   21.6819 C.3     1  UNL1        0.0000
     22 H          24.3664   23.0582   20.7011 H       1  UNL1        0.0000
     23 H          24.7568   21.9228   21.9893 H       1  UNL1        0.0000
     24 H          25.8837   23.2085   21.5731 H       1  UNL1        0.0000
     25 C          22.6366   23.5906   22.6207 C.3     1  UNL1        0.0000
     26 H          22.2403   23.8608   21.6415 H       1  UNL1        0.0000
     27 H          22.1059   24.1677   23.3708 H       1  UNL1        0.0000
     28 H          22.4360   22.5345   22.7740 H       1  UNL1        0.0000
     29 C          24.0758   22.0560   25.3713 C.3     1  UNL1        0.0000
     30 C          24.1454   20.7804   24.5310 C.3     1  UNL1        0.0000
     31 H          23.7464   19.9382   25.0975 H       1  UNL1        0.0000
     32 H          25.1699   20.5467   24.2552 H       1  UNL1        0.0000
     33 H          23.5599   20.8732   23.6212 H       1  UNL1        0.0000
     34 C          22.6125   22.3267   25.7418 C.3     1  UNL1        0.0000
     35 H          22.2487   21.5620   26.4298 H       1  UNL1        0.0000
     36 H          21.9687   22.3154   24.8697 H       1  UNL1        0.0000
     37 H          22.5158   23.3012   26.2282 H       1  UNL1        0.0000
     38 C          24.7985   21.7935   26.6942 C.3     1  UNL1        0.0000
     39 H          24.3168   20.9753   27.2323 H       1  UNL1        0.0000
     40 H          24.7499   22.6858   27.3180 H       1  UNL1        0.0000
     41 H          25.8388   21.5203   26.5447 H       1  UNL1        0.0000
@<TRIPOS>BOND
     1    22    21    1
     2    18    17    1
     3    24    21    1
     4    26    25    1
     5    21    23    1
     6    21    16    1
     7    19    17    1
     8    17    16    1
     9    17    20    1
    10    15    12    1
    11    25    16    1
    12    25    28    1
    13    25    27    1
    14    16     1    1
    15     6     4    1
    16    12    13    1
    17    12    14    1
    18    12     3    1
    19    33    30    1
    20     4     5    1
    21     4     3    1
    22     4     7    1
    23    32    30    1
    24     1     3    1
    25     1    29    1
    26     1     2    1
    27    30    31    1
    28    30    29    1
    29     3     8    1
    30    36    34    1
    31    29    34    1
    32    29    38    1
    33    34    37    1
    34    34    35    1
    35     9     8    1
    36     8    11    1
    37     8    10    1
    38    41    38    1
    39    38    39    1
    40    38    40    1
