@<TRIPOS>MOLECULE
2
 41 40 0 0 0
SMALL
GASTEIGER

@<TRIPOS>ATOM
      1 SI         20.4293   26.5840   26.6493 Si      1  UNL1        0.0000
      2 O          21.8722   25.9407   26.9450 O.3     1  UNL1        0.0000
      3 C          20.6486   27.7195   25.0633 C.3     1  UNL1        0.0000
      4 C          21.4482   28.9734   25.4264 C.3     1  UNL1        0.0000
      5 H          21.7131   29.5241   24.5220 H       1  UNL1        0.0000
      6 H          22.3622   28.6803   25.9412 H       1  UNL1        0.0000
      7 H          20.8761   29.6445   26.0596 H       1  UNL1        0.0000
      8 C          21.4954   26.9682   24.0322 C.3     1  UNL1        0.0000
      9 H          21.8211   27.6476   23.2429 H       1  UNL1        0.0000
     10 H          20.9338   26.1680   23.5633 H       1  UNL1        0.0000
     11 H          22.3782   26.5452   24.5196 H       1  UNL1        0.0000
     12 C          19.3402   28.1556   24.4034 C.3     1  UNL1        0.0000
     13 H          19.5480   28.8093   23.5554 H       1  UNL1        0.0000
     14 H          18.7089   28.6976   25.1015 H       1  UNL1        0.0000
     15 H          18.7816   27.3005   24.0332 H       1  UNL1        0.0000
     16 C          19.2022   25.0826   26.3544 C.3     1  UNL1        0.0000
     17 C          17.7342   25.5048   26.4124 C.3     1  UNL1        0.0000
     18 H          17.0918   24.6518   26.1901 H       1  UNL1        0.0000
     19 H          17.5226   26.2850   25.6870 H       1  UNL1        0.0000
     20 H          17.4641   25.8749   27.3966 H       1  UNL1        0.0000
     21 C          19.4404   23.9816   27.3932 C.3     1  UNL1        0.0000
     22 H          18.8802   23.0846   27.1257 H       1  UNL1        0.0000
     23 H          19.1224   24.2882   28.3832 H       1  UNL1        0.0000
     24 H          20.4950   23.7228   27.4357 H       1  UNL1        0.0000
     25 C          19.4473   24.4503   24.9831 C.3     1  UNL1        0.0000
     26 H          18.8629   23.5346   24.8796 H       1  UNL1        0.0000
     27 H          20.4966   24.1984   24.8670 H       1  UNL1        0.0000
     28 H          19.1526   25.1198   24.1805 H       1  UNL1        0.0000
     29 C          19.9518   27.6336   28.2345 C.3     1  UNL1        0.0000
     30 C          18.8537   28.6701   27.9926 C.3     1  UNL1        0.0000
     31 H          18.6094   29.1791   28.9258 H       1  UNL1        0.0000
     32 H          17.9489   28.1992   27.6181 H       1  UNL1        0.0000
     33 H          19.1667   29.4238   27.2767 H       1  UNL1        0.0000
     34 C          19.4773   26.7214   29.3684 C.3     1  UNL1        0.0000
     35 H          19.3911   27.2874   30.2976 H       1  UNL1        0.0000
     36 H          20.1825   25.9113   29.5259 H       1  UNL1        0.0000
     37 H          18.5010   26.2968   29.1542 H       1  UNL1        0.0000
     38 C          21.2091   28.3475   28.7414 C.3     1  UNL1        0.0000
     39 H          21.0258   28.7810   29.7252 H       1  UNL1        0.0000
     40 H          21.5092   29.1500   28.0765 H       1  UNL1        0.0000
     41 H          22.0382   27.6403   28.8160 H       1  UNL1        0.0000
@<TRIPOS>BOND
     1     9     8    1
     2    13    12    1
     3    10     8    1
     4     8    11    1
     5     8     3    1
     6    15    12    1
     7    28    25    1
     8    12     3    1
     9    12    14    1
    10     5     4    1
    11    27    25    1
    12    26    25    1
    13    25    16    1
    14     3     4    1
    15     3     1    1
    16     4     6    1
    17     4     7    1
    18    19    17    1
    19    18    17    1
    20    16    17    1
    21    16     1    1
    22    16    21    1
    23    17    20    1
    24     1     2    1
    25     1    29    1
    26    22    21    1
    27    33    30    1
    28    21    24    1
    29    21    23    1
    30    32    30    1
    31    30    29    1
    32    30    31    1
    33    40    38    1
    34    29    38    1
    35    29    34    1
    36    38    41    1
    37    38    39    1
    38    37    34    1
    39    34    36    1
    40    34    35    1
