@<TRIPOS>MOLECULE
1
 13 13 0 0 0
SMALL
GASTEIGER

@<TRIPOS>ATOM
      1 O           2.2189    4.2704    5.5989 O.3     1  UNL1       -0.3798
      2 C           2.3953    4.0755    7.0102 C.3     1  UNL1        0.0477
      3 C           3.4407    5.1034    7.4836 C.3     1  UNL1       -0.0274
      4 C           3.7847    5.8871    6.2114 C.3     1  UNL1       -0.0274
      5 C           2.5587    5.6318    5.3402 C.3     1  UNL1        0.0477
      6 H           1.4334    4.2356    7.5137 H       1  UNL1        0.0560
      7 H           2.7121    3.0370    7.1460 H       1  UNL1        0.0560
      8 H           4.3171    4.6209    7.9105 H       1  UNL1        0.0288
      9 H           3.0137    5.7607    8.2400 H       1  UNL1        0.0288
     10 H           3.9489    6.9451    6.3979 H       1  UNL1        0.0288
     11 H           4.6686    5.4699    5.7290 H       1  UNL1        0.0288
     12 H           2.7403    5.7469    4.2710 H       1  UNL1        0.0560
     13 H           1.7274    6.2852    5.6427 H       1  UNL1        0.0560
@<TRIPOS>BOND
     1    12     5    1
     2     5     1    1
     3     5    13    1
     4     5     4    1
     5     1     2    1
     6    11     4    1
     7     4    10    1
     8     4     3    1
     9     2     7    1
    10     2     3    1
    11     2     6    1
    12     3     8    1
    13     3     9    1
