@<TRIPOS>MOLECULE
1
 15 14 0 0 0
SMALL
GASTEIGER

@<TRIPOS>ATOM
      1 O           7.8569    8.3567   18.9065 O.3     1  UNL1       -0.3803
      2 C           8.1258    8.6893   20.2710 C.3     1  UNL1        0.0448
      3 H           8.7030    9.6111   20.2004 H       1  UNL1        0.0557
      4 H           7.1832    8.9024   20.7887 H       1  UNL1        0.0557
      5 C           8.9124    7.6389   21.0448 C.3     1  UNL1       -0.0416
      6 H           9.2510    8.0796   21.9779 H       1  UNL1        0.0252
      7 H           9.7837    7.3206   20.4805 H       1  UNL1        0.0252
      8 H           8.3047    6.7704   21.2846 H       1  UNL1        0.0252
      9 C           7.1714    7.1169   18.7368 C.3     1  UNL1        0.0448
     10 H           7.8302    6.2962   19.0437 H       1  UNL1        0.0557
     11 H           7.0027    7.0473   17.6640 H       1  UNL1        0.0557
     12 C           5.8413    7.0102   19.4727 C.3     1  UNL1       -0.0416
     13 H           5.3114    6.1341   19.1096 H       1  UNL1        0.0252
     14 H           5.2281    7.8850   19.2800 H       1  UNL1        0.0252
     15 H           5.9799    6.9003   20.5448 H       1  UNL1        0.0252
@<TRIPOS>BOND
     1    11     9    1
     2     9     1    1
     3     9    10    1
     4     9    12    1
     5     1     2    1
     6    13    12    1
     7    14    12    1
     8    12    15    1
     9     3     2    1
    10     2     4    1
    11     2     5    1
    12     7     5    1
    13     5     8    1
    14     5     6    1
