@<TRIPOS>MOLECULE
1
 13 13 0 0 0
SMALL
GASTEIGER

@<TRIPOS>ATOM
      1 O           3.3189    3.6172    7.5513 O.3     1  UNL1       -0.3798
      2 C           4.3419    3.5252    8.5556 C.3     1  UNL1        0.0477
      3 H           5.3036    3.6904    8.0627 H       1  UNL1        0.0560
      4 H           4.3295    2.5229    8.9901 H       1  UNL1        0.0560
      5 C           4.0524    4.6044    9.6009 C.3     1  UNL1       -0.0274
      6 H           3.4882    4.1901   10.4363 H       1  UNL1        0.0288
      7 H           4.9657    5.0512    9.9838 H       1  UNL1        0.0288
      8 C           3.1889    5.5899    8.8194 C.3     1  UNL1       -0.0274
      9 H           3.8179    6.2423    8.2133 H       1  UNL1        0.0288
     10 H           2.5487    6.1971    9.4530 H       1  UNL1        0.0288
     11 C           2.3958    4.6365    7.9353 C.3     1  UNL1        0.0477
     12 H           1.5645    4.1940    8.4977 H       1  UNL1        0.0560
     13 H           2.0066    5.0942    7.0269 H       1  UNL1        0.0560
@<TRIPOS>BOND
     1    13    11    1
     2     1    11    1
     3     1     2    1
     4    11    12    1
     5    11     8    1
     6     3     2    1
     7     9     8    1
     8     2     4    1
     9     2     5    1
    10     8    10    1
    11     8     5    1
    12     5     7    1
    13     5     6    1
