@<TRIPOS>MOLECULE
2
 14 13 0 0 0
SMALL
GASTEIGER

@<TRIPOS>ATOM
      1 SI          9.6770   10.5884    8.4723 Si      1  UNL1        0.0000
      2 O           9.0415   10.0862    9.8732 O.3     1  UNL1        0.0000
      3 C           9.3638    9.2686    7.1184 C.3     1  UNL1        0.0000
      4 H           8.3074    9.1992    6.8776 H       1  UNL1        0.0000
      5 H           9.7080    8.2789    7.4089 H       1  UNL1        0.0000
      6 H           9.8883    9.5399    6.2080 H       1  UNL1        0.0000
      7 C          11.5832   10.7956    8.6430 C.3     1  UNL1        0.0000
      8 H          11.8989   11.0154    9.6592 H       1  UNL1        0.0000
      9 H          11.9279   11.6089    8.0125 H       1  UNL1        0.0000
     10 H          12.1108    9.9027    8.3198 H       1  UNL1        0.0000
     11 C           8.8569   12.2434    7.9768 C.3     1  UNL1        0.0000
     12 H           8.2363   12.1197    7.0958 H       1  UNL1        0.0000
     13 H           9.5789   13.0236    7.7565 H       1  UNL1        0.0000
     14 H           8.2089   12.5962    8.7795 H       1  UNL1        0.0000
@<TRIPOS>BOND
     1     6     3    1
     2     4     3    1
     3    12    11    1
     4     3     5    1
     5     3     1    1
     6    13    11    1
     7    11     1    1
     8    11    14    1
     9     9     7    1
    10    10     7    1
    11     1     7    1
    12     1     2    1
    13     7     8    1
