@<TRIPOS>MOLECULE
1
 7 6 0 0 0
SMALL
GASTEIGER

@<TRIPOS>ATOM
      1 O          15.6772    1.4527   14.0765 O.co2   1  UNL1       -0.2467
      2 O          14.9353    1.1265   12.0275 O.co2   1  UNL1       -0.2467
      3 C          14.7566    1.3587   13.2356 C.2     1  UNL1        0.3530
      4 C          13.3315    1.5482   13.7417 C.3     1  UNL1        0.0375
      5 H          13.2208    1.1212   14.7357 H       1  UNL1        0.0343
      6 H          13.1279    2.6170   13.7909 H       1  UNL1        0.0343
      7 H          12.6330    1.0847   13.0511 H       1  UNL1        0.0343
@<TRIPOS>BOND
     1     2     3   ar
     2     7     4    1
     3     3     4    1
     4     3     1   ar
     5     4     6    1
     6     4     5    1
