@<TRIPOS>MOLECULE
1
 13 13 0 0 0
SMALL
GASTEIGER

@<TRIPOS>ATOM
      1 O           2.3390    9.3731    8.8566 O.3     1  UNL1       -0.3798
      2 C           1.9244    8.9557   10.1527 C.3     1  UNL1        0.0477
      3 H           0.8718    9.2339   10.3004 H       1  UNL1        0.0560
      4 H           2.5494    9.4801   10.8786 H       1  UNL1        0.0560
      5 C           2.0931    7.4269   10.2150 C.3     1  UNL1       -0.0274
      6 H           1.1634    6.9524   10.5257 H       1  UNL1        0.0288
      7 H           2.8736    7.1471   10.9184 H       1  UNL1        0.0288
      8 C           2.4708    7.0339    8.7802 C.3     1  UNL1       -0.0274
      9 H           1.9402    6.1507    8.4329 H       1  UNL1        0.0288
     10 H           3.5405    6.8527    8.6975 H       1  UNL1        0.0288
     11 C           2.0990    8.2757    7.9787 C.3     1  UNL1        0.0477
     12 H           2.7139    8.4300    7.0943 H       1  UNL1        0.0560
     13 H           1.0385    8.2619    7.6979 H       1  UNL1        0.0560
@<TRIPOS>BOND
     1    12    11    1
     2    13    11    1
     3    11     8    1
     4    11     1    1
     5     9     8    1
     6    10     8    1
     7     8     5    1
     8     1     2    1
     9     2     5    1
    10     2     3    1
    11     2     4    1
    12     5     6    1
    13     5     7    1
