@<TRIPOS>MOLECULE
1
 13 13 0 0 0
SMALL
GASTEIGER

@<TRIPOS>ATOM
      1 O           5.4088    3.3054    5.5875 O.3     1  UNL1       -0.3798
      2 C           5.8003    4.6754    5.6138 C.3     1  UNL1        0.0477
      3 H           6.5925    4.8267    4.8768 H       1  UNL1        0.0560
      4 H           6.1882    4.8975    6.6163 H       1  UNL1        0.0560
      5 C           4.5504    5.5032    5.3159 C.3     1  UNL1       -0.0274
      6 H           4.4493    5.6567    4.2416 H       1  UNL1        0.0288
      7 H           4.5708    6.4692    5.8152 H       1  UNL1        0.0288
      8 C           3.4398    4.5867    5.8219 C.3     1  UNL1       -0.0274
      9 H           3.3384    4.6768    6.9037 H       1  UNL1        0.0288
     10 H           2.4773    4.7817    5.3559 H       1  UNL1        0.0288
     11 C           3.9926    3.2183    5.4406 C.3     1  UNL1        0.0477
     12 H           3.6397    2.3992    6.0674 H       1  UNL1        0.0560
     13 H           3.7542    2.9826    4.3975 H       1  UNL1        0.0560
@<TRIPOS>BOND
     1     6     5    1
     2    13    11    1
     3     3     2    1
     4     5     2    1
     5     5     7    1
     6     5     8    1
     7    10     8    1
     8    11     1    1
     9    11     8    1
    10    11    12    1
    11     1     2    1
    12     2     4    1
    13     8     9    1
