@<TRIPOS>MOLECULE
1
 13 13 0 0 0
SMALL
GASTEIGER

@<TRIPOS>ATOM
      1 O           8.7155    2.6816    5.2718 O.3     1  UNL1       -0.3798
      2 C           9.2358    3.4959    6.3097 C.3     1  UNL1        0.0477
      3 H           9.4755    2.8744    7.1783 H       1  UNL1        0.0560
      4 H           8.4728    4.2236    6.5800 H       1  UNL1        0.0560
      5 C          10.5104    4.1109    5.7239 C.3     1  UNL1       -0.0274
      6 H          11.2347    4.3394    6.5012 H       1  UNL1        0.0288
      7 H          10.2759    5.0275    5.1830 H       1  UNL1        0.0288
      8 C          11.0077    3.0205    4.7622 C.3     1  UNL1       -0.0274
      9 H          11.2125    3.4296    3.7740 H       1  UNL1        0.0288
     10 H          11.9127    2.5428    5.1314 H       1  UNL1        0.0288
     11 C           9.8478    2.0101    4.7240 C.3     1  UNL1        0.0477
     12 H           9.5837    1.6858    3.7170 H       1  UNL1        0.0560
     13 H          10.0782    1.1335    5.3381 H       1  UNL1        0.0560
@<TRIPOS>BOND
     1    12    11    1
     2     9     8    1
     3    11     8    1
     4    11     1    1
     5    11    13    1
     6     8    10    1
     7     8     5    1
     8     7     5    1
     9     1     2    1
    10     5     2    1
    11     5     6    1
    12     2     4    1
    13     2     3    1
