@<TRIPOS>MOLECULE
1
 13 13 0 0 0
SMALL
GASTEIGER

@<TRIPOS>ATOM
      1 O           2.4573   12.3158    9.9511 O.3     1  UNL1       -0.3798
      2 C           1.2894   12.4458   10.7490 C.3     1  UNL1        0.0477
      3 H           0.9677   11.4500   11.0526 H       1  UNL1        0.0560
      4 H           0.4957   12.9209   10.1606 H       1  UNL1        0.0560
      5 C           1.6970   13.3436   11.9258 C.3     1  UNL1       -0.0274
      6 H           2.0204   12.7417   12.7740 H       1  UNL1        0.0288
      7 H           0.8677   13.9708   12.2431 H       1  UNL1        0.0288
      8 C           2.8656   14.1667   11.3602 C.3     1  UNL1       -0.0274
      9 H           3.7708   14.0076   11.9446 H       1  UNL1        0.0288
     10 H           2.6482   15.2319   11.3448 H       1  UNL1        0.0288
     11 C           3.0253   13.6246    9.9336 C.3     1  UNL1        0.0477
     12 H           2.4763   14.2433    9.2171 H       1  UNL1        0.0560
     13 H           4.0599   13.5296    9.6085 H       1  UNL1        0.0560
@<TRIPOS>BOND
     1    12    11    1
     2    13    11    1
     3    11     1    1
     4    11     8    1
     5     1     2    1
     6     4     2    1
     7     2     3    1
     8     2     5    1
     9    10     8    1
    10     8     5    1
    11     8     9    1
    12     5     7    1
    13     5     6    1
