@<TRIPOS>MOLECULE
1
 13 13 0 0 0
SMALL
GASTEIGER

@<TRIPOS>ATOM
      1 O          14.2016    1.5285   19.3969 O.3     1  UNL1       -0.3798
      2 C          15.6415    1.6509   19.4194 C.3     1  UNL1        0.0477
      3 H          15.9032    2.7105   19.4878 H       1  UNL1        0.0560
      4 H          16.0235    1.1223   20.3025 H       1  UNL1        0.0560
      5 C          16.1579    0.9877   18.1482 C.3     1  UNL1       -0.0274
      6 H          17.1712    0.6134   18.2649 H       1  UNL1        0.0288
      7 H          16.1313    1.6830   17.3098 H       1  UNL1        0.0288
      8 C          15.1294   -0.1198   17.9478 C.3     1  UNL1       -0.0274
      9 H          15.0842   -0.4784   16.9237 H       1  UNL1        0.0288
     10 H          15.3416   -0.9626   18.6066 H       1  UNL1        0.0288
     11 C          13.8423    0.5812   18.3657 C.3     1  UNL1        0.0477
     12 H          13.4086    1.1361   17.5238 H       1  UNL1        0.0560
     13 H          13.1012   -0.1090   18.7733 H       1  UNL1        0.0560
@<TRIPOS>BOND
     1     9     8    1
     2     7     5    1
     3    12    11    1
     4     8     5    1
     5     8    11    1
     6     8    10    1
     7     5     6    1
     8     5     2    1
     9    11    13    1
    10    11     1    1
    11     1     2    1
    12     2     3    1
    13     2     4    1
