@<TRIPOS>MOLECULE
1
 13 13 0 0 0
SMALL
GASTEIGER

@<TRIPOS>ATOM
      1 O          14.2629    2.9236   21.9582 O.3     1  UNL1       -0.3798
      2 C          15.0575    4.0096   22.4891 C.3     1  UNL1        0.0477
      3 H          14.4044    4.8639   22.6904 H       1  UNL1        0.0560
      4 H          15.7953    4.2961   21.7305 H       1  UNL1        0.0560
      5 C          15.7462    3.4847   23.7474 C.3     1  UNL1       -0.0274
      6 H          15.1323    3.6697   24.6286 H       1  UNL1        0.0288
      7 H          16.7199    3.9417   23.8987 H       1  UNL1        0.0288
      8 C          15.8252    1.9872   23.4644 C.3     1  UNL1       -0.0274
      9 H          16.6534    1.7683   22.7892 H       1  UNL1        0.0288
     10 H          15.9363    1.3900   24.3649 H       1  UNL1        0.0288
     11 C          14.4851    1.7587   22.7796 C.3     1  UNL1        0.0477
     12 H          14.4557    0.8725   22.1393 H       1  UNL1        0.0560
     13 H          13.6895    1.6925   23.5306 H       1  UNL1        0.0560
@<TRIPOS>BOND
     1     4     2    1
     2     1     2    1
     3     1    11    1
     4    12    11    1
     5     2     3    1
     6     2     5    1
     7    11     8    1
     8    11    13    1
     9     9     8    1
    10     8     5    1
    11     8    10    1
    12     5     7    1
    13     5     6    1
