@<TRIPOS>MOLECULE
2
 41 40 0 0 0
SMALL
GASTEIGER

@<TRIPOS>ATOM
      1 SI          4.3059    2.8030    3.1082 Si      1  UNL1        0.0000
      2 O           3.6747    4.1582    3.7903 O.3     1  UNL1        0.0000
      3 C           5.0791    1.7682    4.5702 C.3     1  UNL1        0.0000
      4 C           5.3911    0.3196    4.1906 C.3     1  UNL1        0.0000
      5 H           5.8443   -0.1947    5.0376 H       1  UNL1        0.0000
      6 H           6.0844    0.2722    3.3549 H       1  UNL1        0.0000
      7 H           4.4902   -0.2217    3.9176 H       1  UNL1        0.0000
      8 C           6.3722    2.4140    5.0804 C.3     1  UNL1        0.0000
      9 H           6.2001    3.4577    5.3307 H       1  UNL1        0.0000
     10 H           7.1729    2.3485    4.3495 H       1  UNL1        0.0000
     11 H           6.7099    1.9000    5.9803 H       1  UNL1        0.0000
     12 C           4.0891    1.7858    5.7398 C.3     1  UNL1        0.0000
     13 H           3.2094    1.1855    5.5394 H       1  UNL1        0.0000
     14 H           3.7680    2.8104    5.9328 H       1  UNL1        0.0000
     15 H           4.5609    1.3868    6.6374 H       1  UNL1        0.0000
     16 C           2.7964    1.9174    2.2274 C.3     1  UNL1        0.0000
     17 C           1.8922    1.2406    3.2636 C.3     1  UNL1        0.0000
     18 H           1.5794    1.9576    4.0208 H       1  UNL1        0.0000
     19 H           2.3881    0.4023    3.7428 H       1  UNL1        0.0000
     20 H           0.9972    0.8561    2.7742 H       1  UNL1        0.0000
     21 C           3.2563    0.8604    1.2210 C.3     1  UNL1        0.0000
     22 H           2.3925    0.3534    0.7920 H       1  UNL1        0.0000
     23 H           3.8847    0.1137    1.6971 H       1  UNL1        0.0000
     24 H           3.8201    1.3066    0.4065 H       1  UNL1        0.0000
     25 C           1.9067    2.9380    1.5092 C.3     1  UNL1        0.0000
     26 H           1.0393    2.4334    1.0843 H       1  UNL1        0.0000
     27 H           2.4294    3.4358    0.7001 H       1  UNL1        0.0000
     28 H           1.5468    3.6818    2.2220 H       1  UNL1        0.0000
     29 C           5.6672    3.5445    1.8976 C.3     1  UNL1        0.0000
     30 C           6.7187    2.5170    1.4729 C.3     1  UNL1        0.0000
     31 H           6.2493    1.6825    0.9589 H       1  UNL1        0.0000
     32 H           7.2679    2.1250    2.3221 H       1  UNL1        0.0000
     33 H           7.4369    2.9748    0.7928 H       1  UNL1        0.0000
     34 C           5.0359    4.0972    0.6171 C.3     1  UNL1        0.0000
     35 H           5.8004    4.5687   -0.0021 H       1  UNL1        0.0000
     36 H           4.2863    4.8431    0.8613 H       1  UNL1        0.0000
     37 H           4.5771    3.3083    0.0285 H       1  UNL1        0.0000
     38 C           6.3572    4.7240    2.5980 C.3     1  UNL1        0.0000
     39 H           7.0386    4.3850    3.3708 H       1  UNL1        0.0000
     40 H           5.6110    5.3876    3.0705 H       1  UNL1        0.0000
     41 H           6.9287    5.3123    1.8799 H       1  UNL1        0.0000
@<TRIPOS>BOND
     1    35    34    1
     2    37    34    1
     3    24    21    1
     4    34    36    1
     5    34    29    1
     6    27    25    1
     7    22    21    1
     8    33    30    1
     9    31    30    1
    10    26    25    1
    11    21    23    1
    12    21    16    1
    13    30    29    1
    14    30    32    1
    15    25    28    1
    16    25    16    1
    17    41    38    1
    18    29    38    1
    19    29     1    1
    20    16     1    1
    21    16    17    1
    22    38    40    1
    23    38    39    1
    24    20    17    1
    25     1     2    1
    26     1     3    1
    27    17    19    1
    28    17    18    1
    29     6     4    1
    30     7     4    1
    31     4     3    1
    32     4     5    1
    33    10     8    1
    34     3     8    1
    35     3    12    1
    36     8     9    1
    37     8    11    1
    38    13    12    1
    39    12    14    1
    40    12    15    1
