@<TRIPOS>MOLECULE
2
 41 40 0 0 0
SMALL
GASTEIGER

@<TRIPOS>ATOM
      1 SI          1.6678    9.0238    2.7717 Si      1  UNL1        0.0000
      2 O           1.0307    7.6567    2.1400 O.3     1  UNL1        0.0000
      3 C           3.0340    8.4024    4.0370 C.3     1  UNL1        0.0000
      4 C           4.2122    7.7589    3.2959 C.3     1  UNL1        0.0000
      5 H           3.8451    7.0324    2.5686 H       1  UNL1        0.0000
      6 H           4.8577    7.2366    4.0026 H       1  UNL1        0.0000
      7 H           4.8201    8.4981    2.7845 H       1  UNL1        0.0000
      8 C           2.4281    7.2881    4.8896 C.3     1  UNL1        0.0000
      9 H           2.0132    6.5211    4.2127 H       1  UNL1        0.0000
     10 H           1.6361    7.6429    5.5384 H       1  UNL1        0.0000
     11 H           3.1943    6.8262    5.5110 H       1  UNL1        0.0000
     12 C           3.5734    9.4959    4.9600 C.3     1  UNL1        0.0000
     13 H           2.7854    9.8997    5.5882 H       1  UNL1        0.0000
     14 H           4.0079   10.3139    4.3940 H       1  UNL1        0.0000
     15 H           4.3444    9.0860    5.6124 H       1  UNL1        0.0000
     16 C           0.2257   10.0354    3.6247 C.3     1  UNL1        0.0000
     17 C          -0.1624    9.4572    4.9906 C.3     1  UNL1        0.0000
     18 H          -0.4230    8.4056    4.9077 H       1  UNL1        0.0000
     19 H          -1.0332    9.9891    5.3749 H       1  UNL1        0.0000
     20 H           0.6375    9.5754    5.7156 H       1  UNL1        0.0000
     21 C           0.6004   11.5034    3.8385 C.3     1  UNL1        0.0000
     22 H           0.7796   12.0136    2.8976 H       1  UNL1        0.0000
     23 H           1.4958   11.5898    4.4476 H       1  UNL1        0.0000
     24 H          -0.2097   12.0225    4.3500 H       1  UNL1        0.0000
     25 C          -1.0312    9.9503    2.7518 C.3     1  UNL1        0.0000
     26 H          -0.8763   10.4037    1.7784 H       1  UNL1        0.0000
     27 H          -1.8604   10.4636    3.2382 H       1  UNL1        0.0000
     28 H          -1.3084    8.9055    2.6157 H       1  UNL1        0.0000
     29 C           2.5101    9.9242    1.2450 C.3     1  UNL1        0.0000
     30 C           3.5878   10.9296    1.6545 C.3     1  UNL1        0.0000
     31 H           3.1708   11.6976    2.3001 H       1  UNL1        0.0000
     32 H           3.9973   11.4163    0.7692 H       1  UNL1        0.0000
     33 H           4.4086   10.4524    2.1789 H       1  UNL1        0.0000
     34 C           1.4949   10.6961    0.3961 C.3     1  UNL1        0.0000
     35 H           1.0789   11.5354    0.9448 H       1  UNL1        0.0000
     36 H           0.6828   10.0549    0.0781 H       1  UNL1        0.0000
     37 H           1.9829   11.0960   -0.4940 H       1  UNL1        0.0000
     38 C           3.1395    8.8477    0.3457 C.3     1  UNL1        0.0000
     39 H           2.4685    7.9845    0.2491 H       1  UNL1        0.0000
     40 H           4.0809    8.4949    0.7523 H       1  UNL1        0.0000
     41 H           3.3445    9.2521   -0.6451 H       1  UNL1        0.0000
@<TRIPOS>BOND
     1    41    38    1
     2    37    34    1
     3    36    34    1
     4    39    38    1
     5    38    40    1
     6    38    29    1
     7    34    35    1
     8    34    29    1
     9    32    30    1
    10    29    30    1
    11    29     1    1
    12    30    33    1
    13    30    31    1
    14    26    25    1
    15     2     1    1
    16     5     4    1
    17    28    25    1
    18    25    27    1
    19    25    16    1
    20     1    16    1
    21     1     3    1
    22     7     4    1
    23    22    21    1
    24     4     6    1
    25     4     3    1
    26    16    21    1
    27    16    17    1
    28    21    24    1
    29    21    23    1
    30     3     8    1
    31     3    12    1
    32     9     8    1
    33    14    12    1
    34     8    11    1
    35     8    10    1
    36    18    17    1
    37    12    13    1
    38    12    15    1
    39    17    19    1
    40    17    20    1
