@<TRIPOS>MOLECULE
2
 41 40 0 0 0
SMALL
GASTEIGER

@<TRIPOS>ATOM
      1 SI          0.1212    5.7758   -1.3243 Si      1  UNL1        0.0000
      2 O           1.0006    5.7580    0.0545 O.3     1  UNL1        0.0000
      3 C          -1.4748    6.8500   -0.9256 C.3     1  UNL1        0.0000
      4 C          -2.3113    6.1946    0.1791 C.3     1  UNL1        0.0000
      5 H          -1.6413    5.9006    1.0175 H       1  UNL1        0.0000
      6 H          -2.8491    5.3244   -0.1824 H       1  UNL1        0.0000
      7 H          -3.0499    6.8986    0.5615 H       1  UNL1        0.0000
      8 C          -1.0286    8.1989   -0.3595 C.3     1  UNL1        0.0000
      9 H          -0.5908    8.8202   -1.1313 H       1  UNL1        0.0000
     10 H          -0.2994    8.0350    0.4439 H       1  UNL1        0.0000
     11 H          -1.8829    8.7359    0.0532 H       1  UNL1        0.0000
     12 C          -2.3674    7.1166   -2.1395 C.3     1  UNL1        0.0000
     13 H          -1.8100    7.6109   -2.9302 H       1  UNL1        0.0000
     14 H          -3.1968    7.7641   -1.8557 H       1  UNL1        0.0000
     15 H          -2.7807    6.1985   -2.5432 H       1  UNL1        0.0000
     16 C           1.2711    6.5173   -2.7302 C.3     1  UNL1        0.0000
     17 C           1.2814    8.0490   -2.7341 C.3     1  UNL1        0.0000
     18 H           0.3224    8.4439   -3.0587 H       1  UNL1        0.0000
     19 H           2.0367    8.4086   -3.4340 H       1  UNL1        0.0000
     20 H           1.5166    8.4421   -1.7532 H       1  UNL1        0.0000
     21 C           0.8441    6.0924   -4.1371 C.3     1  UNL1        0.0000
     22 H          -0.1832    6.3873   -4.3343 H       1  UNL1        0.0000
     23 H           0.9272    5.0213   -4.2831 H       1  UNL1        0.0000
     24 H           1.4818    6.5765   -4.8768 H       1  UNL1        0.0000
     25 C           2.7122    6.0536   -2.4807 C.3     1  UNL1        0.0000
     26 H           2.8096    4.9801   -2.6021 H       1  UNL1        0.0000
     27 H           3.0222    6.3100   -1.4700 H       1  UNL1        0.0000
     28 H           3.3910    6.5360   -3.1836 H       1  UNL1        0.0000
     29 C          -0.3652    3.9153   -1.7004 C.3     1  UNL1        0.0000
     30 C          -1.4432    3.7433   -2.7720 C.3     1  UNL1        0.0000
     31 H          -2.3948    4.1455   -2.4375 H       1  UNL1        0.0000
     32 H          -1.5890    2.6833   -2.9814 H       1  UNL1        0.0000
     33 H          -1.1687    4.2361   -3.6984 H       1  UNL1        0.0000
     34 C           0.8653    3.1140   -2.1380 C.3     1  UNL1        0.0000
     35 H           1.2115    3.4228   -3.1189 H       1  UNL1        0.0000
     36 H           0.6210    2.0528   -2.1989 H       1  UNL1        0.0000
     37 H           1.6754    3.2406   -1.4274 H       1  UNL1        0.0000
     38 C          -0.8860    3.2762   -0.4097 C.3     1  UNL1        0.0000
     39 H          -1.8887    3.6146   -0.1748 H       1  UNL1        0.0000
     40 H          -0.2306    3.5259    0.4361 H       1  UNL1        0.0000
     41 H          -0.9399    2.1938   -0.5245 H       1  UNL1        0.0000
@<TRIPOS>BOND
     1    24    21    1
     2    22    21    1
     3    23    21    1
     4    21    16    1
     5    33    30    1
     6    19    17    1
     7    28    25    1
     8    35    34    1
     9    18    17    1
    10    32    30    1
    11    13    12    1
    12    30    31    1
    13    30    29    1
    14    17    16    1
    15    17    20    1
    16    16    25    1
    17    16     1    1
    18    26    25    1
    19    15    12    1
    20    25    27    1
    21    36    34    1
    22    12    14    1
    23    12     3    1
    24    34    29    1
    25    34    37    1
    26    29     1    1
    27    29    38    1
    28     1     3    1
    29     1     2    1
    30     9     8    1
    31     3     8    1
    32     3     4    1
    33    41    38    1
    34    38    39    1
    35    38    40    1
    36     8    11    1
    37     8    10    1
    38     6     4    1
    39     4     7    1
    40     4     5    1
