@<TRIPOS>MOLECULE
2
 41 40 0 0 0
SMALL
GASTEIGER

@<TRIPOS>ATOM
      1 SI          3.7116    5.9861    7.8342 Si      1  UNL1        0.0000
      2 O           3.5452    5.7549    6.2680 O.3     1  UNL1        0.0000
      3 C           3.4427    7.9067    8.1239 C.3     1  UNL1        0.0000
      4 C           2.1934    8.3333    7.3527 C.3     1  UNL1        0.0000
      5 H           2.0690    9.4169    7.3990 H       1  UNL1        0.0000
      6 H           1.2946    7.8837    7.7555 H       1  UNL1        0.0000
      7 H           2.2934    8.0247    6.3103 H       1  UNL1        0.0000
      8 C           4.6011    8.7085    7.5264 C.3     1  UNL1        0.0000
      9 H           4.7664    8.4037    6.4948 H       1  UNL1        0.0000
     10 H           5.5203    8.5667    8.0857 H       1  UNL1        0.0000
     11 H           4.3714    9.7757    7.5405 H       1  UNL1        0.0000
     12 C           3.2831    8.3192    9.5867 C.3     1  UNL1        0.0000
     13 H           3.1835    9.4035    9.6620 H       1  UNL1        0.0000
     14 H           4.1428    8.0174   10.1777 H       1  UNL1        0.0000
     15 H           2.3945    7.8746   10.0245 H       1  UNL1        0.0000
     16 C           5.5752    5.4778    8.2172 C.3     1  UNL1        0.0000
     17 C           6.4502    5.9043    7.0313 C.3     1  UNL1        0.0000
     18 H           6.6054    6.9777    7.0185 H       1  UNL1        0.0000
     19 H           5.9698    5.6233    6.0907 H       1  UNL1        0.0000
     20 H           7.4286    5.4241    7.0815 H       1  UNL1        0.0000
     21 C           6.1397    6.0907    9.4990 C.3     1  UNL1        0.0000
     22 H           7.1577    5.7351    9.6667 H       1  UNL1        0.0000
     23 H           5.5382    5.8078   10.3585 H       1  UNL1        0.0000
     24 H           6.1728    7.1743    9.4488 H       1  UNL1        0.0000
     25 C           5.7178    3.9610    8.3488 C.3     1  UNL1        0.0000
     26 H           5.2995    3.4703    7.4798 H       1  UNL1        0.0000
     27 H           5.2142    3.5921    9.2371 H       1  UNL1        0.0000
     28 H           6.7715    3.6856    8.4289 H       1  UNL1        0.0000
     29 C           2.3988    4.9216    8.8372 C.3     1  UNL1        0.0000
     30 C           2.2931    3.5189    8.2336 C.3     1  UNL1        0.0000
     31 H           1.5028    2.9536    8.7294 H       1  UNL1        0.0000
     32 H           3.2177    2.9637    8.3390 H       1  UNL1        0.0000
     33 H           2.0434    3.5916    7.1768 H       1  UNL1        0.0000
     34 C           0.9926    5.5206    8.7360 C.3     1  UNL1        0.0000
     35 H           0.7146    5.6635    7.6947 H       1  UNL1        0.0000
     36 H           0.9197    6.4679    9.2621 H       1  UNL1        0.0000
     37 H           0.2674    4.8402    9.1854 H       1  UNL1        0.0000
     38 C           2.7424    4.7905   10.3224 C.3     1  UNL1        0.0000
     39 H           2.8206    5.7648   10.7959 H       1  UNL1        0.0000
     40 H           3.6826    4.2668   10.4677 H       1  UNL1        0.0000
     41 H           1.9642    4.2252   10.8371 H       1  UNL1        0.0000
@<TRIPOS>BOND
     1    19    17    1
     2     2     1    1
     3     7     4    1
     4     9     8    1
     5    18    17    1
     6    17    20    1
     7    17    16    1
     8    33    30    1
     9     4     5    1
    10     4     6    1
    11     4     3    1
    12    26    25    1
    13     8    11    1
    14     8    10    1
    15     8     3    1
    16    35    34    1
    17     1     3    1
    18     1    16    1
    19     1    29    1
    20     3    12    1
    21    16    25    1
    22    16    21    1
    23    30    32    1
    24    30    31    1
    25    30    29    1
    26    25    28    1
    27    25    27    1
    28    34    29    1
    29    34    37    1
    30    34    36    1
    31    29    38    1
    32    24    21    1
    33    21    22    1
    34    21    23    1
    35    12    13    1
    36    12    15    1
    37    12    14    1
    38    38    40    1
    39    38    39    1
    40    38    41    1
