@<TRIPOS>MOLECULE
2
 41 40 0 0 0
SMALL
GASTEIGER

@<TRIPOS>ATOM
      1 SI          1.3956    2.6000    3.1209 Si      1  UNL1        0.0000
      2 O           0.8373    3.9874    2.4424 O.3     1  UNL1        0.0000
      3 C           2.5009    3.1123    4.6664 C.3     1  UNL1        0.0000
      4 C           3.6601    3.9741    4.1501 C.3     1  UNL1        0.0000
      5 H           4.3943    3.3763    3.6194 H       1  UNL1        0.0000
      6 H           4.1726    4.4611    4.9789 H       1  UNL1        0.0000
      7 H           3.2774    4.7436    3.4735 H       1  UNL1        0.0000
      8 C           1.7143    3.9651    5.6711 C.3     1  UNL1        0.0000
      9 H           1.0798    3.3506    6.2991 H       1  UNL1        0.0000
     10 H           1.0865    4.6961    5.1712 H       1  UNL1        0.0000
     11 H           2.4021    4.4952    6.3290 H       1  UNL1        0.0000
     12 C           3.0734    1.9293    5.4517 C.3     1  UNL1        0.0000
     13 H           3.6787    1.2772    4.8333 H       1  UNL1        0.0000
     14 H           2.2755    1.3363    5.8897 H       1  UNL1        0.0000
     15 H           3.6973    2.2997    6.2652 H       1  UNL1        0.0000
     16 C          -0.1674    1.5367    3.6230 C.3     1  UNL1        0.0000
     17 C          -1.2173    1.5646    2.5085 C.3     1  UNL1        0.0000
     18 H          -0.8548    1.0923    1.6028 H       1  UNL1        0.0000
     19 H          -1.4928    2.5939    2.2875 H       1  UNL1        0.0000
     20 H          -2.1134    1.0328    2.8283 H       1  UNL1        0.0000
     21 C          -0.8482    2.1268    4.8639 C.3     1  UNL1        0.0000
     22 H          -0.2620    1.9399    5.7576 H       1  UNL1        0.0000
     23 H          -1.8218    1.6582    5.0075 H       1  UNL1        0.0000
     24 H          -1.0000    3.1983    4.7541 H       1  UNL1        0.0000
     25 C           0.1948    0.0823    3.9274 C.3     1  UNL1        0.0000
     26 H           0.5943   -0.4203    3.0518 H       1  UNL1        0.0000
     27 H          -0.6917   -0.4619    4.2515 H       1  UNL1        0.0000
     28 H           0.9371    0.0214    4.7176 H       1  UNL1        0.0000
     29 C           2.5338    1.8405    1.6962 C.3     1  UNL1        0.0000
     30 C           3.1792    2.9996    0.9173 C.3     1  UNL1        0.0000
     31 H           3.9999    3.4384    1.4765 H       1  UNL1        0.0000
     32 H           2.4501    3.8022    0.7108 H       1  UNL1        0.0000
     33 H           3.5817    2.6404   -0.0301 H       1  UNL1        0.0000
     34 C           1.7214    1.0075    0.7005 C.3     1  UNL1        0.0000
     35 H           0.9227    1.5927    0.2683 H       1  UNL1        0.0000
     36 H           1.2990    0.1287    1.1788 H       1  UNL1        0.0000
     37 H           2.3667    0.6636   -0.1091 H       1  UNL1        0.0000
     38 C           3.6424    0.9170    2.2072 C.3     1  UNL1        0.0000
     39 H           4.3684    1.4469    2.8144 H       1  UNL1        0.0000
     40 H           4.1775    0.4825    1.3624 H       1  UNL1        0.0000
     41 H           3.2232    0.1039    2.7940 H       1  UNL1        0.0000
@<TRIPOS>BOND
     1    37    34    1
     2    33    30    1
     3    35    34    1
     4    34    36    1
     5    34    29    1
     6    32    30    1
     7    30    31    1
     8    30    29    1
     9    40    38    1
    10    18    17    1
    11    29    38    1
    12    29     1    1
    13    38    41    1
    14    38    39    1
    15    19    17    1
    16     2     1    1
    17    17    20    1
    18    17    16    1
    19    26    25    1
    20     1    16    1
    21     1     3    1
    22     7     4    1
    23     5     4    1
    24    16    25    1
    25    16    21    1
    26    25    27    1
    27    25    28    1
    28     4     3    1
    29     4     6    1
    30     3    12    1
    31     3     8    1
    32    24    21    1
    33    13    12    1
    34    21    23    1
    35    21    22    1
    36    10     8    1
    37    12    14    1
    38    12    15    1
    39     8     9    1
    40     8    11    1
