@<TRIPOS>MOLECULE
2
 41 40 0 0 0
SMALL
GASTEIGER

@<TRIPOS>ATOM
      1 SI          2.2320    8.6972    3.0594 Si      1  UNL1        0.0000
      2 O           2.6905    7.4573    4.0260 O.3     1  UNL1        0.0000
      3 C           0.3287    9.0543    3.3450 C.3     1  UNL1        0.0000
      4 C          -0.5595    7.9308    2.7948 C.3     1  UNL1        0.0000
      5 H          -0.2842    6.9732    3.2351 H       1  UNL1        0.0000
      6 H          -0.5129    7.8664    1.7113 H       1  UNL1        0.0000
      7 H          -1.5966    8.1306    3.0635 H       1  UNL1        0.0000
      8 C          -0.0942   10.3677    2.6814 C.3     1  UNL1        0.0000
      9 H          -1.1654   10.5192    2.8089 H       1  UNL1        0.0000
     10 H           0.1225   10.3610    1.6167 H       1  UNL1        0.0000
     11 H           0.4160   11.2161    3.1277 H       1  UNL1        0.0000
     12 C           0.0160    9.1272    4.8428 C.3     1  UNL1        0.0000
     13 H          -1.0432    9.3392    4.9865 H       1  UNL1        0.0000
     14 H           0.5841    9.9021    5.3442 H       1  UNL1        0.0000
     15 H           0.2364    8.1716    5.3130 H       1  UNL1        0.0000
     16 C           2.5816    7.8562    1.3144 C.3     1  UNL1        0.0000
     17 C           2.0882    6.4121    1.3988 C.3     1  UNL1        0.0000
     18 H           2.3790    5.8547    0.5087 H       1  UNL1        0.0000
     19 H           1.0092    6.3506    1.4936 H       1  UNL1        0.0000
     20 H           2.5438    5.9165    2.2967 H       1  UNL1        0.0000
     21 C           1.9112    8.5460    0.1246 C.3     1  UNL1        0.0000
     22 H           2.2372    9.5791    0.0459 H       1  UNL1        0.0000
     23 H           0.8301    8.5381    0.2178 H       1  UNL1        0.0000
     24 H           2.1715    8.0365   -0.8033 H       1  UNL1        0.0000
     25 C           4.0861    7.7848    1.0350 C.3     1  UNL1        0.0000
     26 H           4.2764    7.1923    0.1392 H       1  UNL1        0.0000
     27 H           4.6059    7.3180    1.8764 H       1  UNL1        0.0000
     28 H           4.5053    8.7713    0.8656 H       1  UNL1        0.0000
     29 C           3.4535   10.1801    3.4275 C.3     1  UNL1        0.0000
     30 C           3.5069   11.1944    2.2826 C.3     1  UNL1        0.0000
     31 H           2.5256   11.6224    2.0992 H       1  UNL1        0.0000
     32 H           3.8571   10.7439    1.3588 H       1  UNL1        0.0000
     33 H           4.1880   12.0054    2.5384 H       1  UNL1        0.0000
     34 C           3.0216   10.9324    4.6895 C.3     1  UNL1        0.0000
     35 H           3.7380   11.7237    4.9126 H       1  UNL1        0.0000
     36 H           2.9842   10.2577    5.5375 H       1  UNL1        0.0000
     37 H           2.0482   11.3969    4.5617 H       1  UNL1        0.0000
     38 C           4.8689    9.6396    3.6888 C.3     1  UNL1        0.0000
     39 H           5.3883    9.4088    2.7643 H       1  UNL1        0.0000
     40 H           4.8310    8.7338    4.2989 H       1  UNL1        0.0000
     41 H           5.4600   10.3826    4.2226 H       1  UNL1        0.0000
@<TRIPOS>BOND
     1    24    21    1
     2    22    21    1
     3    21    23    1
     4    21    16    1
     5    26    25    1
     6    18    17    1
     7    28    25    1
     8    25    16    1
     9    25    27    1
    10    16    17    1
    11    16     1    1
    12    32    30    1
    13    17    19    1
    14    17    20    1
    15    10     8    1
    16     6     4    1
    17    31    30    1
    18    30    33    1
    19    30    29    1
    20     8     9    1
    21     8    11    1
    22     8     3    1
    23    39    38    1
    24     4     7    1
    25     4     5    1
    26     4     3    1
    27     1     3    1
    28     1    29    1
    29     1     2    1
    30     3    12    1
    31    29    38    1
    32    29    34    1
    33    38    41    1
    34    38    40    1
    35    37    34    1
    36    34    35    1
    37    34    36    1
    38    12    13    1
    39    12    15    1
    40    12    14    1
