@<TRIPOS>MOLECULE
1
 14 13 0 0 0
SMALL
GASTEIGER

@<TRIPOS>ATOM
      1 O           1.1132   13.2691    1.9011 O.3     1  UNL1        0.0000
      2 SI          2.2878   12.7494    0.9922 Si      1  UNL1        0.0000
      3 C           1.6738   11.6278   -0.4370 C.3     1  UNL1        0.0000
      4 H           0.9055   12.1205   -1.0258 H       1  UNL1        0.0000
      5 H           1.2571   10.6914   -0.0772 H       1  UNL1        0.0000
      6 H           2.4918   11.3830   -1.1075 H       1  UNL1        0.0000
      7 C           3.5423   11.6874    1.9798 C.3     1  UNL1        0.0000
      8 H           3.1063   10.7530    2.3220 H       1  UNL1        0.0000
      9 H           3.9076   12.2139    2.8563 H       1  UNL1        0.0000
     10 H           4.4021   11.4395    1.3653 H       1  UNL1        0.0000
     11 C           3.2774   14.1680    0.1758 C.3     1  UNL1        0.0000
     12 H           2.6434   14.7756   -0.4633 H       1  UNL1        0.0000
     13 H           4.0827   13.7767   -0.4383 H       1  UNL1        0.0000
     14 H           3.7207   14.8245    0.9182 H       1  UNL1        0.0000
@<TRIPOS>BOND
     1     6     3    1
     2     4     3    1
     3    12    11    1
     4    13    11    1
     5     3     5    1
     6     3     2    1
     7    11    14    1
     8    11     2    1
     9     2     1    1
    10     2     7    1
    11    10     7    1
    12     7     8    1
    13     7     9    1
