@<TRIPOS>MOLECULE
1
 13 13 0 0 0
SMALL
GASTEIGER

@<TRIPOS>ATOM
      1 O           3.4881    3.0385    1.7118 O.3     1  UNL1       -0.3798
      2 C           3.9501    1.8039    1.1760 C.3     1  UNL1        0.0477
      3 C           5.1587    2.1555    0.2914 C.3     1  UNL1       -0.0274
      4 C           4.9617    3.6505   -0.0100 C.3     1  UNL1       -0.0274
      5 C           3.6067    3.9628    0.6398 C.3     1  UNL1        0.0477
      6 H           3.1452    1.3445    0.5821 H       1  UNL1        0.0560
      7 H           4.1883    1.1606    2.0254 H       1  UNL1        0.0560
      8 H           6.0935    1.9857    0.8239 H       1  UNL1        0.0288
      9 H           5.1701    1.5526   -0.6140 H       1  UNL1        0.0288
     10 H           4.9503    3.8639   -1.0765 H       1  UNL1        0.0288
     11 H           5.7502    4.2447    0.4503 H       1  UNL1        0.0288
     12 H           3.5514    4.9767    1.0380 H       1  UNL1        0.0560
     13 H           2.7950    3.8017   -0.0866 H       1  UNL1        0.0560
@<TRIPOS>BOND
     1    10     4    1
     2     9     3    1
     3    13     5    1
     4     4     3    1
     5     4    11    1
     6     4     5    1
     7     3     8    1
     8     3     2    1
     9     6     2    1
    10     5    12    1
    11     5     1    1
    12     2     1    1
    13     2     7    1
