@<TRIPOS>MOLECULE
1
 13 13 0 0 0
SMALL
GASTEIGER

@<TRIPOS>ATOM
      1 O           0.1157    2.2682   12.8044 O.3     1  UNL1       -0.3798
      2 C          -1.2699    2.0844   13.1073 C.3     1  UNL1        0.0477
      3 H          -1.8120    1.8854   12.1707 H       1  UNL1        0.0560
      4 H          -1.6421    3.0067   13.5628 H       1  UNL1        0.0560
      5 C          -1.3302    0.8677   14.0431 C.3     1  UNL1       -0.0274
      6 H          -2.1896    0.2419   13.8120 H       1  UNL1        0.0288
      7 H          -1.4079    1.1818   15.0829 H       1  UNL1        0.0288
      8 C           0.0010    0.1417   13.7842 C.3     1  UNL1       -0.0274
      9 H           0.6410    0.1851   14.6649 H       1  UNL1        0.0288
     10 H          -0.1394   -0.9016   13.5109 H       1  UNL1        0.0288
     11 C           0.6246    0.9451   12.6386 C.3     1  UNL1        0.0477
     12 H           0.2990    0.5559   11.6609 H       1  UNL1        0.0560
     13 H           1.7145    1.0015   12.6809 H       1  UNL1        0.0560
@<TRIPOS>BOND
     1    12    11    1
     2     3     2    1
     3    11    13    1
     4    11     1    1
     5    11     8    1
     6     1     2    1
     7     2     4    1
     8     2     5    1
     9    10     8    1
    10     8     5    1
    11     8     9    1
    12     6     5    1
    13     5     7    1
