@<TRIPOS>MOLECULE
1
 13 13 0 0 0
SMALL
GASTEIGER

@<TRIPOS>ATOM
      1 O          -4.3047    6.8673   12.1655 O.3     1  UNL1       -0.3798
      2 C          -3.8300    5.5866   11.7280 C.3     1  UNL1        0.0477
      3 H          -3.8472    4.9024   12.5794 H       1  UNL1        0.0560
      4 H          -2.7952    5.6917   11.3735 H       1  UNL1        0.0560
      5 C          -4.7469    5.1569   10.5889 C.3     1  UNL1       -0.0274
      6 H          -4.2681    4.4497    9.9163 H       1  UNL1        0.0288
      7 H          -5.6597    4.7124   10.9858 H       1  UNL1        0.0288
      8 C          -5.0539    6.5009    9.9357 C.3     1  UNL1       -0.0274
      9 H          -5.9636    6.4920    9.3413 H       1  UNL1        0.0288
     10 H          -4.2229    6.8141    9.3025 H       1  UNL1        0.0288
     11 C          -5.1738    7.4127   11.1533 C.3     1  UNL1        0.0477
     12 H          -4.8702    8.4423   10.9398 H       1  UNL1        0.0560
     13 H          -6.1963    7.4118   11.5469 H       1  UNL1        0.0560
@<TRIPOS>BOND
     1    10     8    1
     2     9     8    1
     3     6     5    1
     4     8     5    1
     5     8    11    1
     6     5     7    1
     7     5     2    1
     8    12    11    1
     9    11    13    1
    10    11     1    1
    11     4     2    1
    12     2     1    1
    13     2     3    1
