@<TRIPOS>MOLECULE
1
 13 13 0 0 0
SMALL
GASTEIGER

@<TRIPOS>ATOM
      1 O           9.0087    7.4222    3.1161 O.3     1  UNL1       -0.3798
      2 C           9.0902    8.7331    3.7044 C.3     1  UNL1        0.0477
      3 H           9.3590    8.6278    4.7642 H       1  UNL1        0.0560
      4 H           8.1107    9.2127    3.6259 H       1  UNL1        0.0560
      5 C          10.1872    9.4712    2.9483 C.3     1  UNL1       -0.0274
      6 H          10.6257   10.2726    3.5372 H       1  UNL1        0.0288
      7 H           9.7945    9.8809    2.0184 H       1  UNL1        0.0288
      8 C          11.1592    8.3330    2.6561 C.3     1  UNL1       -0.0274
      9 H          11.8304    8.5439    1.8274 H       1  UNL1        0.0288
     10 H          11.7514    8.1034    3.5425 H       1  UNL1        0.0288
     11 C          10.2019    7.1869    2.3442 C.3     1  UNL1        0.0477
     12 H           9.9295    7.1857    1.2817 H       1  UNL1        0.0560
     13 H          10.6034    6.2106    2.6175 H       1  UNL1        0.0560
@<TRIPOS>BOND
     1    12    11    1
     2     9     8    1
     3     7     5    1
     4    11    13    1
     5    11     8    1
     6    11     1    1
     7     8     5    1
     8     8    10    1
     9     5     6    1
    10     5     2    1
    11     1     2    1
    12     4     2    1
    13     2     3    1
