@<TRIPOS>MOLECULE
1
 13 13 0 0 0
SMALL
GASTEIGER

@<TRIPOS>ATOM
      1 O           7.6340   10.1611    3.2948 O.3     1  UNL1       -0.3798
      2 C           7.7765   10.9588    2.1094 C.3     1  UNL1        0.0477
      3 H           8.8170   10.8803    1.7744 H       1  UNL1        0.0560
      4 H           7.0876   10.5818    1.3360 H       1  UNL1        0.0560
      5 C           7.3609   12.3652    2.5237 C.3     1  UNL1       -0.0274
      6 H           7.1079   12.9923    1.6726 H       1  UNL1        0.0288
      7 H           8.1557   12.8416    3.0992 H       1  UNL1        0.0288
      8 C           6.1649   12.0465    3.4159 C.3     1  UNL1       -0.0274
      9 H           5.2871   11.8354    2.8039 H       1  UNL1        0.0288
     10 H           5.9263   12.8431    4.1164 H       1  UNL1        0.0288
     11 C           6.6292   10.7775    4.1333 C.3     1  UNL1        0.0477
     12 H           7.0968   11.0080    5.0972 H       1  UNL1        0.0560
     13 H           5.8125   10.0671    4.2937 H       1  UNL1        0.0560
@<TRIPOS>BOND
     1     4     2    1
     2     6     5    1
     3     3     2    1
     4     2     5    1
     5     2     1    1
     6     5     7    1
     7     5     8    1
     8     9     8    1
     9     1    11    1
    10     8    10    1
    11     8    11    1
    12    11    13    1
    13    11    12    1
