@<TRIPOS>MOLECULE
1
 13 13 0 0 0
SMALL
GASTEIGER

@<TRIPOS>ATOM
      1 O           8.1166    7.8650    0.4559 O.3     1  UNL1       -0.3798
      2 C           9.2618    7.3309   -0.2189 C.3     1  UNL1        0.0477
      3 H           9.7118    6.5649    0.4145 H       1  UNL1        0.0560
      4 H           9.9817    8.1418   -0.4006 H       1  UNL1        0.0560
      5 C           8.7101    6.7801   -1.5341 C.3     1  UNL1       -0.0274
      6 H           8.3349    5.7697   -1.3760 H       1  UNL1        0.0288
      7 H           9.4703    6.7537   -2.3103 H       1  UNL1        0.0288
      8 C           7.5620    7.7491   -1.8584 C.3     1  UNL1       -0.0274
      9 H           7.8026    8.3957   -2.7002 H       1  UNL1        0.0288
     10 H           6.6454    7.2120   -2.0934 H       1  UNL1        0.0288
     11 C           7.4115    8.5762   -0.5677 C.3     1  UNL1        0.0477
     12 H           7.8774    9.5644   -0.7019 H       1  UNL1        0.0560
     13 H           6.3741    8.6957   -0.2460 H       1  UNL1        0.0560
@<TRIPOS>BOND
     1     9     8    1
     2     7     5    1
     3    10     8    1
     4     8     5    1
     5     8    11    1
     6     5     6    1
     7     5     2    1
     8    12    11    1
     9    11    13    1
    10    11     1    1
    11     4     2    1
    12     2     3    1
    13     2     1    1
