@<TRIPOS>MOLECULE
1
 11 10 0 0 0
SMALL
GASTEIGER

@<TRIPOS>ATOM
      1 O          -2.5690    6.2317   19.4670 O.3     1  UNL1       -0.2317
      2 C          -3.1912    7.3688   18.9849 C.3     1  UNL1        0.0882
      3 H          -4.1068    7.0637   18.4357 H       1  UNL1        0.0622
      4 C          -2.2656    8.1283   18.0206 C.3     1  UNL1       -0.0359
      5 H          -1.3640    8.4276   18.5643 H       1  UNL1        0.0255
      6 H          -2.7653    9.0098   17.6213 H       1  UNL1        0.0255
      7 H          -1.9838    7.4731   17.1962 H       1  UNL1        0.0255
      8 C          -3.5939    8.2793   20.1547 C.3     1  UNL1       -0.0359
      9 H          -4.2732    7.7454   20.8161 H       1  UNL1        0.0255
     10 H          -4.0827    9.1820   19.7936 H       1  UNL1        0.0255
     11 H          -2.6938    8.5381   20.7145 H       1  UNL1        0.0255
@<TRIPOS>BOND
     1     7     4    1
     2     6     4    1
     3     4     5    1
     4     4     2    1
     5     3     2    1
     6     2     1    1
     7     2     8    1
     8    10     8    1
     9     8    11    1
    10     8     9    1
