@<TRIPOS>MOLECULE
1
 11 10 0 0 0
SMALL
GASTEIGER

@<TRIPOS>ATOM
      1 O          -0.9392    4.5549   21.0804 O.3     1  UNL1       -0.2317
      2 C           0.0382    3.9214   21.8186 C.3     1  UNL1        0.0882
      3 H           0.5822    4.6828   22.4240 H       1  UNL1        0.0622
      4 C          -0.5970    2.9131   22.7889 C.3     1  UNL1       -0.0359
      5 H          -1.2763    3.4314   23.4614 H       1  UNL1        0.0255
      6 H           0.1683    2.4049   23.3709 H       1  UNL1        0.0255
      7 H          -1.1656    2.1789   22.2216 H       1  UNL1        0.0255
      8 C           1.0495    3.2198   20.8942 C.3     1  UNL1       -0.0359
      9 H           0.5890    2.3410   20.4469 H       1  UNL1        0.0255
     10 H           1.9358    2.9147   21.4483 H       1  UNL1        0.0255
     11 H           1.3181    3.9065   20.0873 H       1  UNL1        0.0255
@<TRIPOS>BOND
     1    11     8    1
     2     9     8    1
     3     8    10    1
     4     8     2    1
     5     1     2    1
     6     2     3    1
     7     2     4    1
     8     7     4    1
     9     4     6    1
    10     4     5    1
