@<TRIPOS>MOLECULE
1
 13 13 0 0 0
SMALL
GASTEIGER

@<TRIPOS>ATOM
      1 O           0.0354    7.7553    2.2125 O.3     1  UNL1       -0.3798
      2 C           1.0334    7.8659    1.1835 C.3     1  UNL1        0.0477
      3 H           1.0325    6.9284    0.6174 H       1  UNL1        0.0560
      4 H           2.0112    8.0048    1.6520 H       1  UNL1        0.0560
      5 C           0.6477    9.0567    0.3047 C.3     1  UNL1       -0.0274
      6 H           0.9035    8.8947   -0.7397 H       1  UNL1        0.0288
      7 H           1.1477    9.9575    0.6614 H       1  UNL1        0.0288
      8 C          -0.8547    9.1640    0.5459 C.3     1  UNL1       -0.0274
      9 H          -1.3942    8.4377   -0.0646 H       1  UNL1        0.0288
     10 H          -1.2515   10.1573    0.3504 H       1  UNL1        0.0288
     11 C          -0.9301    8.7863    2.0208 C.3     1  UNL1        0.0477
     12 H          -0.6728    9.6488    2.6457 H       1  UNL1        0.0560
     13 H          -1.9051    8.4009    2.3243 H       1  UNL1        0.0560
@<TRIPOS>BOND
     1     6     5    1
     2     9     8    1
     3     5     8    1
     4     5     7    1
     5     5     2    1
     6    10     8    1
     7     8    11    1
     8     3     2    1
     9     2     4    1
    10     2     1    1
    11    11     1    1
    12    11    13    1
    13    11    12    1
