@<TRIPOS>MOLECULE
1
 13 13 0 0 0
SMALL
GASTEIGER

@<TRIPOS>ATOM
      1 O          -2.1057    5.6704    3.6023 O.3     1  UNL1       -0.3798
      2 C          -3.1309    5.0326    4.3543 C.3     1  UNL1        0.0477
      3 H          -3.1297    5.4615    5.3561 H       1  UNL1        0.0560
      4 H          -2.9223    3.9564    4.4225 H       1  UNL1        0.0560
      5 C          -4.4445    5.2674    3.5852 C.3     1  UNL1       -0.0274
      6 H          -5.0427    6.0404    4.0618 H       1  UNL1        0.0288
      7 H          -5.0358    4.3551    3.5438 H       1  UNL1        0.0288
      8 C          -3.9745    5.7077    2.1899 C.3     1  UNL1       -0.0274
      9 H          -4.1739    6.7678    2.0330 H       1  UNL1        0.0288
     10 H          -4.4495    5.1456    1.3897 H       1  UNL1        0.0288
     11 C          -2.4644    5.4510    2.2460 C.3     1  UNL1        0.0477
     12 H          -2.2420    4.4134    1.9651 H       1  UNL1        0.0560
     13 H          -1.8738    6.1246    1.6286 H       1  UNL1        0.0560
@<TRIPOS>BOND
     1    10     8    1
     2    13    11    1
     3    12    11    1
     4     9     8    1
     5     8    11    1
     6     8     5    1
     7    11     1    1
     8     7     5    1
     9     5     6    1
    10     5     2    1
    11     1     2    1
    12     2     4    1
    13     2     3    1
