@<TRIPOS>MOLECULE
1
 13 13 0 0 0
SMALL
GASTEIGER

@<TRIPOS>ATOM
      1 O           1.0026    4.2915    1.9205 O.3     1  UNL1       -0.3798
      2 C          -0.1035    3.6954    1.2463 C.3     1  UNL1        0.0477
      3 C           0.2768    3.7245   -0.2306 C.3     1  UNL1       -0.0274
      4 C           1.0281    5.0562   -0.3484 C.3     1  UNL1       -0.0274
      5 C           1.4108    5.3937    1.1056 C.3     1  UNL1        0.0477
      6 H          -1.0143    4.2814    1.4272 H       1  UNL1        0.0560
      7 H          -0.2437    2.6928    1.6466 H       1  UNL1        0.0560
      8 H           0.9383    2.8897   -0.4572 H       1  UNL1        0.0288
      9 H          -0.5938    3.6729   -0.8796 H       1  UNL1        0.0288
     10 H           1.9063    4.9657   -0.9839 H       1  UNL1        0.0288
     11 H           0.3878    5.8329   -0.7637 H       1  UNL1        0.0288
     12 H           2.4852    5.5242    1.2496 H       1  UNL1        0.0560
     13 H           0.8946    6.3028    1.4386 H       1  UNL1        0.0560
@<TRIPOS>BOND
     1    10     4    1
     2     9     3    1
     3    11     4    1
     4     8     3    1
     5     4     3    1
     6     4     5    1
     7     3     2    1
     8     5    12    1
     9     5    13    1
    10     5     1    1
    11     2     6    1
    12     2     7    1
    13     2     1    1
