@<TRIPOS>MOLECULE
1
 13 13 0 0 0
SMALL
GASTEIGER

@<TRIPOS>ATOM
      1 O           5.7363    0.8451    3.3141 O.3     1  UNL1       -0.3798
      2 C           5.6315    0.8471    1.8825 C.3     1  UNL1        0.0477
      3 C           6.7429   -0.0516    1.3405 C.3     1  UNL1       -0.0274
      4 C           7.7838    0.0186    2.4544 C.3     1  UNL1       -0.0274
      5 C           6.8966    0.0855    3.6900 C.3     1  UNL1        0.0477
      6 H           4.6363    0.4922    1.5999 H       1  UNL1        0.0560
      7 H           7.1188    0.2972    0.3820 H       1  UNL1        0.0288
      8 H           8.4477   -0.8411    2.4710 H       1  UNL1        0.0288
      9 H           7.3785    0.5914    4.5281 H       1  UNL1        0.0560
     10 H           5.7522    1.8776    1.5346 H       1  UNL1        0.0560
     11 H           6.3847   -1.0747    1.2241 H       1  UNL1        0.0288
     12 H           8.3820    0.9262    2.3777 H       1  UNL1        0.0288
     13 H           6.5796   -0.9221    3.9921 H       1  UNL1        0.0560
@<TRIPOS>BOND
     1     7     3    1
     2    11     3    1
     3     3     2    1
     4     3     4    1
     5    10     2    1
     6     6     2    1
     7     2     1    1
     8    12     4    1
     9     4     8    1
    10     4     5    1
    11     1     5    1
    12     5    13    1
    13     5     9    1
