@<TRIPOS>MOLECULE
1
 13 13 0 0 0
SMALL
GASTEIGER

@<TRIPOS>ATOM
      1 O           2.2536    0.9265    3.6323 O.3     1  UNL1       -0.3798
      2 C           2.3987   -0.4394    3.2475 C.3     1  UNL1        0.0477
      3 C           1.0876   -1.1350    3.6368 C.3     1  UNL1       -0.0274
      4 C           0.0705    0.0176    3.6976 C.3     1  UNL1       -0.0274
      5 C           0.9021    1.2468    3.3092 C.3     1  UNL1        0.0477
      6 H           2.5463   -0.4946    2.1591 H       1  UNL1        0.0560
      7 H           0.8119   -1.8880    2.9026 H       1  UNL1        0.0288
      8 H          -0.3317    0.1224    4.7036 H       1  UNL1        0.0288
      9 H           0.6367    2.1548    3.8479 H       1  UNL1        0.0560
     10 H           3.2762   -0.8372    3.7570 H       1  UNL1        0.0560
     11 H           1.1862   -1.6159    4.6068 H       1  UNL1        0.0288
     12 H          -0.7601   -0.1257    3.0107 H       1  UNL1        0.0288
     13 H           0.8159    1.4276    2.2277 H       1  UNL1        0.0560
@<TRIPOS>BOND
     1     6     2    1
     2    13     5    1
     3     7     3    1
     4    12     4    1
     5     2     1    1
     6     2     3    1
     7     2    10    1
     8     5     1    1
     9     5     4    1
    10     5     9    1
    11     3     4    1
    12     3    11    1
    13     4     8    1
