@<TRIPOS>MOLECULE
1
 13 13 0 0 0
SMALL
GASTEIGER

@<TRIPOS>ATOM
      1 O           3.7227    3.9363    3.0216 O.3     1  UNL1       -0.3798
      2 C           3.1959    3.5415    1.7600 C.3     1  UNL1        0.0477
      3 C           2.0841    4.5517    1.4652 C.3     1  UNL1       -0.0274
      4 C           2.6199    5.8387    2.1144 C.3     1  UNL1       -0.0274
      5 C           3.8474    5.3558    2.9073 C.3     1  UNL1        0.0477
      6 H           3.9823    3.6131    0.9948 H       1  UNL1        0.0560
      7 H           1.9084    4.6613    0.3984 H       1  UNL1        0.0288
      8 H           1.8777    6.2964    2.7651 H       1  UNL1        0.0288
      9 H           3.9224    5.7742    3.9090 H       1  UNL1        0.0560
     10 H           2.8578    2.5110    1.8353 H       1  UNL1        0.0560
     11 H           1.1548    4.2361    1.9387 H       1  UNL1        0.0288
     12 H           2.9103    6.5755    1.3687 H       1  UNL1        0.0288
     13 H           4.7614    5.5899    2.3496 H       1  UNL1        0.0560
@<TRIPOS>BOND
     1     7     3    1
     2     6     2    1
     3    12     4    1
     4     3     2    1
     5     3    11    1
     6     3     4    1
     7     2    10    1
     8     2     1    1
     9     4     8    1
    10     4     5    1
    11    13     5    1
    12     5     1    1
    13     5     9    1
