@<TRIPOS>MOLECULE
1
 35 38 0 0 0
SMALL
GASTEIGER

@<TRIPOS>ATOM
      1 O          -2.0484   -3.1980    5.0533 O.3     1  UNL1       -0.2872
      2 O          -4.5016   -1.5968    2.0811 O.3     1  UNL1       -0.5061
      3 C          -2.6082   -3.5595    2.7820 C.ar    1  UNL1        0.0405
      4 C          -1.6680   -3.3674    3.7921 C.ar    1  UNL1        0.1874
      5 C          -0.2863   -3.4082    3.4754 C.ar    1  UNL1       -0.0137
      6 C           0.1275   -3.5651    2.1862 C.ar    1  UNL1       -0.0504
      7 C          -0.3938   -3.8666   -0.2029 C.ar    1  UNL1       -0.0540
      8 C          -1.3089   -4.0527   -1.2008 C.ar    1  UNL1       -0.0612
      9 C          -2.6775   -4.1040   -0.8963 C.ar    1  UNL1       -0.0611
     10 C          -3.1087   -3.9522    0.3913 C.ar    1  UNL1       -0.0533
     11 C          -0.8041   -3.7097    1.1359 C.ar    1  UNL1       -0.0171
     12 C          -2.1917   -3.7315    1.4419 C.ar    1  UNL1       -0.0064
     13 C          -4.0342   -3.6418    3.1754 C.ar    1  UNL1        0.0355
     14 C          -4.9338   -2.6489    2.8352 C.ar    1  UNL1        0.1253
     15 C          -6.2722   -2.7184    3.2651 C.ar    1  UNL1       -0.0190
     16 C          -6.7090   -3.7710    4.0176 C.ar    1  UNL1       -0.0505
     17 C          -6.2744   -5.9496    5.0836 C.ar    1  UNL1       -0.0540
     18 C          -5.4252   -6.9862    5.3497 C.ar    1  UNL1       -0.0612
     19 C          -4.0999   -6.9455    4.8870 C.ar    1  UNL1       -0.0611
     20 C          -3.6399   -5.8632    4.1896 C.ar    1  UNL1       -0.0533
     21 C          -5.8371   -4.8269    4.3499 C.ar    1  UNL1       -0.0171
     22 C          -4.4865   -4.7657    3.9137 C.ar    1  UNL1       -0.0066
     23 H          -5.2293   -0.9821    1.9295 H       1  UNL1        0.2922
     24 H           0.4184   -3.3203    4.2924 H       1  UNL1        0.0656
     25 H           1.1820   -3.5887    1.9520 H       1  UNL1        0.0625
     26 H           0.6639   -3.8396   -0.4246 H       1  UNL1        0.0624
     27 H          -0.9863   -4.1704   -2.2249 H       1  UNL1        0.0618
     28 H          -3.3907   -4.2689   -1.6912 H       1  UNL1        0.0618
     29 H          -4.1624   -4.0027    0.6213 H       1  UNL1        0.0624
     30 H          -6.9508   -1.9196    2.9910 H       1  UNL1        0.0654
     31 H          -7.7355   -3.8130    4.3524 H       1  UNL1        0.0625
     32 H          -7.3000   -5.9784    5.4230 H       1  UNL1        0.0624
     33 H          -5.7675   -7.8448    5.9081 H       1  UNL1        0.0618
     34 H          -3.4436   -7.7803    5.0868 H       1  UNL1        0.0618
     35 H          -2.6221   -5.8385    3.8294 H       1  UNL1        0.0624
@<TRIPOS>BOND
     1    27     8    1
     2    28     9    1
     3     8     9   ar
     4     8     7   ar
     5     9    10   ar
     6    26     7    1
     7     7    11   ar
     8    10    29    1
     9    10    12   ar
    10    11    12   ar
    11    11     6   ar
    12    12     3   ar
    13    23     2    1
    14    25     6    1
    15     2    14    1
    16     6     5   ar
    17     3    13    1
    18     3     4   ar
    19    14    13   ar
    20    14    15   ar
    21    30    15    1
    22    13    22   ar
    23    15    16   ar
    24     5     4   ar
    25     5    24    1
    26     4     1    1
    27    35    20    1
    28    22    20   ar
    29    22    21   ar
    30    16    21   ar
    31    16    31    1
    32    20    19   ar
    33    21    17   ar
    34    19    34    1
    35    19    18   ar
    36    17    18   ar
    37    17    32    1
    38    18    33    1
