@<TRIPOS>MOLECULE
1
 12 12 0 0 0
SMALL
GASTEIGER

@<TRIPOS>ATOM
      1 O          -8.3821    3.7119   -0.6959 O.3     1  UNL1       -0.2879
      2 C          -8.3666    2.4379   -1.0884 C.ar    1  UNL1        0.1790
      3 C          -8.3910    2.1071   -2.4494 C.ar    1  UNL1       -0.0149
      4 H          -8.4286    2.9031   -3.1799 H       1  UNL1        0.0656
      5 C          -8.3638    0.7841   -2.8480 C.ar    1  UNL1       -0.0581
      6 H          -8.3853    0.5470   -3.9018 H       1  UNL1        0.0619
      7 C          -8.3058   -0.2338   -1.9110 C.ar    1  UNL1       -0.0615
      8 H          -8.2814   -1.2644   -2.2297 H       1  UNL1        0.0618
      9 C          -8.2774    0.0809   -0.5607 C.ar    1  UNL1       -0.0581
     10 H          -8.2306   -0.7089    0.1747 H       1  UNL1        0.0619
     11 C          -8.3086    1.3980   -0.1456 C.ar    1  UNL1       -0.0149
     12 H          -8.3015    1.6701    0.9136 H       1  UNL1        0.0656
@<TRIPOS>BOND
     1     6     5    1
     2     4     3    1
     3     5     3   ar
     4     5     7   ar
     5     3     2   ar
     6     8     7    1
     7     7     9   ar
     8     2     1    1
     9     2    11   ar
    10     9    11   ar
    11     9    10    1
    12    11    12    1
