@<TRIPOS>MOLECULE
1
 14 13 0 0 0
SMALL
GASTEIGER

@<TRIPOS>ATOM
      1 O          -7.6437    5.8657    0.4811 O.3     1  UNL1       -0.2285
      2 C          -7.5704    6.8081   -0.5528 C.3     1  UNL1        0.0962
      3 C          -6.5855    6.3182   -1.6263 C.3     1  UNL1       -0.0333
      4 H          -5.5699    6.3464   -1.2427 H       1  UNL1        0.0258
      5 H          -6.6478    6.9400   -2.5160 H       1  UNL1        0.0258
      6 H          -6.8268    5.2865   -1.8839 H       1  UNL1        0.0258
      7 C          -8.9812    6.9114   -1.1702 C.3     1  UNL1       -0.0333
      8 H          -9.6828    7.2740   -0.4165 H       1  UNL1        0.0258
      9 H          -9.2841    5.9143   -1.5097 H       1  UNL1        0.0258
     10 H          -8.9908    7.5933   -2.0179 H       1  UNL1        0.0258
     11 C          -7.1241    8.1673    0.0057 C.3     1  UNL1       -0.0333
     12 H          -6.1646    8.0548    0.5052 H       1  UNL1        0.0258
     13 H          -7.8477    8.5247    0.7353 H       1  UNL1        0.0258
     14 H          -7.0291    8.8956   -0.7956 H       1  UNL1        0.0258
@<TRIPOS>BOND
     1     5     3    1
     2    10     7    1
     3     6     3    1
     4     3     4    1
     5     3     2    1
     6     9     7    1
     7     7     2    1
     8     7     8    1
     9    14    11    1
    10     2    11    1
    11     2     1    1
    12    11    12    1
    13    11    13    1
