@<TRIPOS>MOLECULE
1
 14 13 0 0 0
SMALL
GASTEIGER

@<TRIPOS>ATOM
      1 O         -10.2334    3.4959    1.1259 O.3     1  UNL1       -0.2285
      2 C         -11.5054    3.2101    0.6016 C.3     1  UNL1        0.0962
      3 C         -12.5822    3.4388    1.6770 C.3     1  UNL1       -0.0333
      4 H         -12.3348    2.8582    2.5630 H       1  UNL1        0.0258
      5 H         -13.5559    3.1269    1.3082 H       1  UNL1        0.0258
      6 H         -12.6295    4.4881    1.9572 H       1  UNL1        0.0258
      7 C         -11.5724    1.7467    0.1310 C.3     1  UNL1       -0.0333
      8 H         -10.8675    1.5705   -0.6779 H       1  UNL1        0.0258
      9 H         -12.5749    1.5101   -0.2158 H       1  UNL1        0.0258
     10 H         -11.3186    1.0880    0.9583 H       1  UNL1        0.0258
     11 C         -11.7194    4.1654   -0.5877 C.3     1  UNL1       -0.0333
     12 H         -10.9614    3.9652   -1.3493 H       1  UNL1        0.0258
     13 H         -11.6232    5.1964   -0.2362 H       1  UNL1        0.0258
     14 H         -12.7043    4.0325   -1.0293 H       1  UNL1        0.0258
@<TRIPOS>BOND
     1    12    11    1
     2    14    11    1
     3     8     7    1
     4    11    13    1
     5    11     2    1
     6     9     7    1
     7     7     2    1
     8     7    10    1
     9     2     1    1
    10     2     3    1
    11     5     3    1
    12     3     6    1
    13     3     4    1
