@<TRIPOS>MOLECULE
1
 12 12 0 0 0
SMALL
GASTEIGER

@<TRIPOS>ATOM
      1 O         -10.0147    6.0536    1.5210 O.3     1  UNL1       -0.2879
      2 C         -10.8770    6.2464    2.5224 C.ar    1  UNL1        0.1790
      3 C         -10.7814    5.4914    3.7013 C.ar    1  UNL1       -0.0149
      4 H          -9.9866    4.7444    3.7567 H       1  UNL1        0.0656
      5 C         -11.6696    5.7016    4.7370 C.ar    1  UNL1       -0.0581
      6 H         -11.5845    5.1154    5.6401 H       1  UNL1        0.0619
      7 C         -12.6663    6.6600    4.6275 C.ar    1  UNL1       -0.0615
      8 H         -13.3583    6.8207    5.4397 H       1  UNL1        0.0618
      9 C         -12.7650    7.4132    3.4700 C.ar    1  UNL1       -0.0581
     10 H         -13.5362    8.1643    3.3784 H       1  UNL1        0.0619
     11 C         -11.8821    7.2169    2.4249 C.ar    1  UNL1       -0.0149
     12 H         -11.9565    7.8080    1.5226 H       1  UNL1        0.0656
@<TRIPOS>BOND
     1     1     2    1
     2    12    11    1
     3    11     2   ar
     4    11     9   ar
     5     2     3   ar
     6    10     9    1
     7     9     7   ar
     8     3     4    1
     9     3     5   ar
    10     7     5   ar
    11     7     8    1
    12     5     6    1
