@<TRIPOS>MOLECULE
1
 13 13 0 0 0
SMALL
GASTEIGER

@<TRIPOS>ATOM
      1 O           9.0420    9.1457    3.8993 O.3     1  UNL1       -0.3798
      2 C           9.4883    8.1414    2.9903 C.3     1  UNL1        0.0477
      3 H           9.6959    8.6049    2.0158 H       1  UNL1        0.0560
      4 H           8.6859    7.4116    2.8868 H       1  UNL1        0.0560
      5 C          10.2329    9.7739    4.3599 C.3     1  UNL1        0.0477
      6 H           9.9909   10.3546    5.2494 H       1  UNL1        0.0560
      7 H          10.6213   10.4415    3.5778 H       1  UNL1        0.0560
      8 C          11.2109    8.6233    4.6197 C.3     1  UNL1       -0.0274
      9 H          12.2444    8.9357    4.4905 H       1  UNL1        0.0288
     10 H          11.0864    8.2499    5.6354 H       1  UNL1        0.0288
     11 C          10.7789    7.5612    3.5942 C.3     1  UNL1       -0.0274
     12 H          10.5866    6.6066    4.0791 H       1  UNL1        0.0288
     13 H          11.5327    7.4078    2.8246 H       1  UNL1        0.0288
@<TRIPOS>BOND
     1     3     2    1
     2    13    11    1
     3     4     2    1
     4     2    11    1
     5     2     1    1
     6     7     5    1
     7    11    12    1
     8    11     8    1
     9     1     5    1
    10     5     8    1
    11     5     6    1
    12     9     8    1
    13     8    10    1
