@<TRIPOS>MOLECULE
1
 18 18 0 0 0
SMALL
GASTEIGER

@<TRIPOS>ATOM
      1 O           1.3682   -0.4755    4.7357 O.3     1  UNL1       -0.2873
      2 C           1.2491   -1.5989    5.4413 C.ar    1  UNL1        0.1847
      3 C           0.5077   -1.6064    6.6364 C.ar    1  UNL1       -0.0035
      4 C           0.3953   -2.7849    7.3541 C.ar    1  UNL1       -0.0552
      5 C           1.0039   -3.9475    6.9147 C.ar    1  UNL1       -0.0610
      6 C           1.7343   -3.9386    5.7385 C.ar    1  UNL1       -0.0552
      7 C           1.8647   -2.7815    4.9906 C.ar    1  UNL1       -0.0035
      8 C          -0.1275   -0.3281    7.0919 C.3     1  UNL1       -0.0361
      9 C           2.6428   -2.7363    3.7098 C.3     1  UNL1       -0.0361
     10 H          -0.1767   -2.7886    8.2712 H       1  UNL1        0.0621
     11 H           0.9090   -4.8586    7.4861 H       1  UNL1        0.0618
     12 H           2.2094   -4.8455    5.3918 H       1  UNL1        0.0621
     13 H           0.6037    0.2938    7.6116 H       1  UNL1        0.0279
     14 H          -0.4741    0.2380    6.2223 H       1  UNL1        0.0279
     15 H          -0.9605   -0.5213    7.7638 H       1  UNL1        0.0279
     16 H           3.1627   -3.6753    3.5359 H       1  UNL1        0.0279
     17 H           1.9727   -2.5399    2.8704 H       1  UNL1        0.0279
     18 H           3.3706   -1.9179    3.7435 H       1  UNL1        0.0279
@<TRIPOS>BOND
     1    17     9    1
     2    16     9    1
     3     9    18    1
     4     9     7    1
     5     1     2    1
     6     7     2   ar
     7     7     6   ar
     8    12     6    1
     9     2     3   ar
    10     6     5   ar
    11    14     8    1
    12     3     8    1
    13     3     4   ar
    14     5     4   ar
    15     5    11    1
    16     8    13    1
    17     8    15    1
    18     4    10    1
