@<TRIPOS>MOLECULE
1
 13 13 0 0 0
SMALL
GASTEIGER

@<TRIPOS>ATOM
      1 O           3.7795    4.3460    3.4375 O.3     1  UNL1       -0.3798
      2 C           3.5723    5.7093    3.0725 C.3     1  UNL1        0.0477
      3 H           2.7141    6.0825    3.6298 H       1  UNL1        0.0560
      4 H           3.3702    5.7686    1.9931 H       1  UNL1        0.0560
      5 C           5.1039    4.0517    2.9935 C.3     1  UNL1        0.0477
      6 H           5.0768    3.8051    1.9223 H       1  UNL1        0.0560
      7 H           5.4601    3.1851    3.5565 H       1  UNL1        0.0560
      8 C           4.8807    6.4217    3.4219 C.3     1  UNL1       -0.0274
      9 H           4.8532    6.7548    4.4586 H       1  UNL1        0.0288
     10 H           5.0534    7.2824    2.7803 H       1  UNL1        0.0288
     11 C           5.9373    5.3212    3.2351 C.3     1  UNL1       -0.0274
     12 H           6.5917    5.5215    2.3890 H       1  UNL1        0.0288
     13 H           6.5523    5.2214    4.1264 H       1  UNL1        0.0288
@<TRIPOS>BOND
     1     6     5    1
     2     4     2    1
     3    12    11    1
     4    10     8    1
     5     5    11    1
     6     5     1    1
     7     5     7    1
     8     2     8    1
     9     2     1    1
    10     2     3    1
    11    11     8    1
    12    11    13    1
    13     8     9    1
