@<TRIPOS>MOLECULE
1
 13 13 0 0 0
SMALL
GASTEIGER

@<TRIPOS>ATOM
      1 O           5.0490    2.3947   14.7159 O.3     1  UNL1       -0.3798
      2 C           6.3326    1.7423   14.6623 C.3     1  UNL1        0.0477
      3 H           6.5271    1.4415   13.6270 H       1  UNL1        0.0560
      4 H           6.2961    0.8417   15.2826 H       1  UNL1        0.0560
      5 C           7.3606    2.7617   15.1388 C.3     1  UNL1       -0.0274
      6 H           8.3431    2.5801   14.7113 H       1  UNL1        0.0288
      7 H           7.4409    2.7476   16.2263 H       1  UNL1        0.0288
      8 C           6.7290    4.0696   14.6733 C.3     1  UNL1       -0.0274
      9 H           7.0930    4.9407   15.2123 H       1  UNL1        0.0288
     10 H           6.9004    4.2147   13.6062 H       1  UNL1        0.0288
     11 C           5.2533    3.7988   14.9441 C.3     1  UNL1        0.0477
     12 H           5.0018    4.0316   15.9877 H       1  UNL1        0.0560
     13 H           4.5852    4.3637   14.2887 H       1  UNL1        0.0560
@<TRIPOS>BOND
     1    10     8    1
     2     3     2    1
     3    13    11    1
     4     2     1    1
     5     2     5    1
     6     2     4    1
     7     8    11    1
     8     8     5    1
     9     8     9    1
    10     6     5    1
    11     1    11    1
    12    11    12    1
    13     5     7    1
