@<TRIPOS>MOLECULE
5
 8 7 0 0 0
SMALL
GASTEIGER

@<TRIPOS>ATOM
      1 S           3.3998    1.9105    4.2611 S.3     1  UNL1        0.1076
      2 F           3.5943    2.8773    1.7660 F       1  UNL1       -0.1499
      3 F           2.1601    3.9109    2.9945 F       1  UNL1       -0.1499
      4 F           4.2707    4.2163    3.3150 F       1  UNL1       -0.1499
      5 O           3.5614    2.7316    5.4726 O.3     1  UNL1       -0.0619
      6 O           4.5833    1.1924    3.9027 O.3     1  UNL1       -0.0619
      7 O           2.1413    1.2475    4.1178 O.3     1  UNL1       -0.0619
      8 C           3.3455    3.2985    3.0039 C.3     1  UNL1        0.5278
@<TRIPOS>BOND
     1     2     8    1
     2     3     8    1
     3     8     4    1
     4     8     1    1
     5     6     1    1
     6     7     1    1
     7     1     5    1
