@<TRIPOS>MOLECULE
1
 13 13 0 0 0
SMALL
GASTEIGER

@<TRIPOS>ATOM
      1 O           4.6357    7.6867    3.9167 O.3     1  UNL1       -0.3798
      2 C           4.4537    8.1732    2.5715 C.3     1  UNL1        0.0477
      3 C           3.3176    9.2091    2.6083 C.3     1  UNL1       -0.0274
      4 C           2.8613    9.1917    4.0688 C.3     1  UNL1       -0.0274
      5 C           4.1263    8.7106    4.7699 C.3     1  UNL1        0.0477
      6 H           5.4170    8.6271    2.2452 H       1  UNL1        0.0560
      7 H           4.2210    7.3069    1.9485 H       1  UNL1        0.0560
      8 H           2.5124    8.9519    1.9236 H       1  UNL1        0.0288
      9 H           3.6982   10.1929    2.3381 H       1  UNL1        0.0288
     10 H           2.5320   10.1650    4.4235 H       1  UNL1        0.0288
     11 H           2.0567    8.4695    4.2131 H       1  UNL1        0.0288
     12 H           3.9537    8.2817    5.7573 H       1  UNL1        0.0560
     13 H           4.8555    9.5288    4.8420 H       1  UNL1        0.0560
@<TRIPOS>BOND
     1     8     3    1
     2     7     2    1
     3     6     2    1
     4     9     3    1
     5     2     3    1
     6     2     1    1
     7     3     4    1
     8     1     5    1
     9     4    11    1
    10     4    10    1
    11     4     5    1
    12     5    13    1
    13     5    12    1
