@<TRIPOS>MOLECULE
2
 44 43 0 0 0
SMALL
GASTEIGER

@<TRIPOS>ATOM
      1 SI         12.4366   13.0758    3.3163 Si      1  UNL1        0.0000
      2 O          12.1971   11.6297    3.9296 O.3     1  UNL1        0.0000
      3 O          11.2632   13.5073    2.2612 O.3     1  UNL1        0.0000
      4 O          13.8559   13.2407    2.5160 O.3     1  UNL1        0.0000
      5 O          12.5346   14.1124    4.5793 O.3     1  UNL1        0.0000
      6 C          14.4718   12.4906    1.4897 C.3     1  UNL1        0.0000
      7 C          13.5126   12.3022    0.3153 C.3     1  UNL1        0.0000
      8 H          12.6826   11.6719    0.6190 H       1  UNL1        0.0000
      9 H          14.0261   11.8453   -0.5272 H       1  UNL1        0.0000
     10 H          13.1156   13.2687    0.0179 H       1  UNL1        0.0000
     11 C          12.5103   16.0742    5.8958 C.3     1  UNL1        0.0000
     12 H          11.5206   16.3411    5.5335 H       1  UNL1        0.0000
     13 H          13.0465   16.9820    6.1589 H       1  UNL1        0.0000
     14 H          12.3948   15.4575    6.7835 H       1  UNL1        0.0000
     15 C           9.8971   13.8256    2.4909 C.3     1  UNL1        0.0000
     16 C           9.4403   13.3874    3.8800 C.3     1  UNL1        0.0000
     17 H           9.6442   12.3232    4.0149 H       1  UNL1        0.0000
     18 H           8.3738   13.5690    3.9920 H       1  UNL1        0.0000
     19 H           9.9838   13.9418    4.6407 H       1  UNL1        0.0000
     20 C           9.0714   13.1028    1.4206 C.3     1  UNL1        0.0000
     21 H           9.5613   13.2015    0.4546 H       1  UNL1        0.0000
     22 H           8.0774   13.5387    1.3585 H       1  UNL1        0.0000
     23 H           8.9735   12.0506    1.6736 H       1  UNL1        0.0000
     24 C          14.9169   11.1283    2.0382 C.3     1  UNL1        0.0000
     25 H          15.7260   11.2579    2.7539 H       1  UNL1        0.0000
     26 H          15.2580   10.4873    1.2290 H       1  UNL1        0.0000
     27 H          14.0782   10.6470    2.5538 H       1  UNL1        0.0000
     28 C          14.6651   14.9121    5.3269 C.3     1  UNL1        0.0000
     29 H          14.5730   14.2982    6.2192 H       1  UNL1        0.0000
     30 H          15.2448   15.8016    5.5604 H       1  UNL1        0.0000
     31 H          15.1759   14.3406    4.5575 H       1  UNL1        0.0000
     32 C          13.2734   15.2976    4.8163 C.3     1  UNL1        0.0000
     33 C          15.6956   13.3000    1.0412 C.3     1  UNL1        0.0000
     34 H          15.3770   14.2497    0.6196 H       1  UNL1        0.0000
     35 H          16.2585   12.7491    0.2928 H       1  UNL1        0.0000
     36 H          16.3399   13.5004    1.8934 H       1  UNL1        0.0000
     37 C          13.4084   16.1399    3.5496 C.3     1  UNL1        0.0000
     38 H          13.8999   15.5491    2.7847 H       1  UNL1        0.0000
     39 H          13.9897   17.0354    3.7540 H       1  UNL1        0.0000
     40 H          12.4286   16.4273    3.1812 H       1  UNL1        0.0000
     41 C           9.7416   15.3437    2.3412 C.3     1  UNL1        0.0000
     42 H          10.3217   15.8459    3.1102 H       1  UNL1        0.0000
     43 H           8.6984   15.6313    2.4426 H       1  UNL1        0.0000
     44 H          10.1071   15.6583    1.3671 H       1  UNL1        0.0000
@<TRIPOS>BOND
     1     9     7    1
     2    10     7    1
     3    35    33    1
     4     7     8    1
     5     7     6    1
     6    21    20    1
     7    34    33    1
     8    33     6    1
     9    33    36    1
    10    26    24    1
    11    22    20    1
    12    44    41    1
    13    20    23    1
    14    20    15    1
    15     6    24    1
    16     6     4    1
    17    24    27    1
    18    24    25    1
    19     3    15    1
    20     3     1    1
    21    41    43    1
    22    41    15    1
    23    41    42    1
    24    15    16    1
    25     4     1    1
    26    38    37    1
    27    40    37    1
    28     1     2    1
    29     1     5    1
    30    37    39    1
    31    37    32    1
    32    16    18    1
    33    16    17    1
    34    16    19    1
    35    31    28    1
    36     5    32    1
    37    32    28    1
    38    32    11    1
    39    28    30    1
    40    28    29    1
    41    12    11    1
    42    11    13    1
    43    11    14    1
