@<TRIPOS>MOLECULE
4
 44 43 0 0 0
SMALL
GASTEIGER

@<TRIPOS>ATOM
      1 SI          8.7299    9.1971    3.9002 Si      1  UNL1        0.0000
      2 O           7.6226    9.0105    5.1057 O.3     1  UNL1        0.0000
      3 O           8.0660    9.9157    2.5861 O.3     1  UNL1        0.0000
      4 O           9.9722   10.1004    4.3295 O.3     1  UNL1        0.0000
      5 O           9.1705    7.7019    3.4114 O.3     1  UNL1        0.0000
      6 C           9.2646    6.4306    4.0421 C.3     1  UNL1        0.0000
      7 C           7.3766    9.7804    6.2705 C.3     1  UNL1        0.0000
      8 C           8.6274    9.8156    7.1551 C.3     1  UNL1        0.0000
      9 H           8.8361    8.8285    7.5596 H       1  UNL1        0.0000
     10 H           8.4951   10.5144    7.9773 H       1  UNL1        0.0000
     11 H           9.4808   10.1261    6.5445 H       1  UNL1        0.0000
     12 C           6.9837   11.2053    5.8783 C.3     1  UNL1        0.0000
     13 H           7.8164   11.6676    5.3593 H       1  UNL1        0.0000
     14 H           6.7314   11.7897    6.7596 H       1  UNL1        0.0000
     15 H           6.1274   11.1819    5.2092 H       1  UNL1        0.0000
     16 C           6.2186    9.0939    7.0048 C.3     1  UNL1        0.0000
     17 H           5.3382    9.0717    6.3680 H       1  UNL1        0.0000
     18 H           5.9840    9.6295    7.9206 H       1  UNL1        0.0000
     19 H           6.4878    8.0706    7.2524 H       1  UNL1        0.0000
     20 C           6.9863    9.4704    1.7749 C.3     1  UNL1        0.0000
     21 C           7.4848    8.3824    0.8209 C.3     1  UNL1        0.0000
     22 H           8.2093    8.7960    0.1258 H       1  UNL1        0.0000
     23 H           6.6548    7.9575    0.2622 H       1  UNL1        0.0000
     24 H           7.9742    7.6090    1.4020 H       1  UNL1        0.0000
     25 C           6.4882   10.6823    0.9794 C.3     1  UNL1        0.0000
     26 H           6.1956   11.4753    1.6616 H       1  UNL1        0.0000
     27 H           5.6313   10.4007    0.3728 H       1  UNL1        0.0000
     28 H           7.2723   11.0572    0.3288 H       1  UNL1        0.0000
     29 C           5.8450    8.9242    2.6311 C.3     1  UNL1        0.0000
     30 H           6.1952    8.0718    3.2010 H       1  UNL1        0.0000
     31 H           5.0091    8.6267    2.0029 H       1  UNL1        0.0000
     32 H           5.5151    9.6860    3.3308 H       1  UNL1        0.0000
     33 C           9.4496    6.5689    5.5503 C.3     1  UNL1        0.0000
     34 H          10.2723    7.2692    5.7164 H       1  UNL1        0.0000
     35 H           9.6885    5.6050    5.9930 H       1  UNL1        0.0000
     36 H           8.5456    6.9641    6.0000 H       1  UNL1        0.0000
     37 C           7.9883    5.6391    3.7355 C.3     1  UNL1        0.0000
     38 H           7.1289    6.1718    4.1337 H       1  UNL1        0.0000
     39 H           8.0397    4.6550    4.1943 H       1  UNL1        0.0000
     40 H           7.8618    5.5222    2.6619 H       1  UNL1        0.0000
     41 C          10.4951    5.7466    3.4416 C.3     1  UNL1        0.0000
     42 H          10.4253    5.7318    2.3568 H       1  UNL1        0.0000
     43 H          10.5894    4.7294    3.8127 H       1  UNL1        0.0000
     44 H          11.3674    6.3287    3.7343 H       1  UNL1        0.0000
@<TRIPOS>BOND
     1    22    21    1
     2    23    21    1
     3    28    25    1
     4    27    25    1
     5    21    24    1
     6    21    20    1
     7    25    26    1
     8    25    20    1
     9    20     3    1
    10    20    29    1
    11    31    29    1
    12    42    41    1
    13     3     1    1
    14    29    30    1
    15    29    32    1
    16    40    37    1
    17     5     1    1
    18     5     6    1
    19    41    44    1
    20    41    43    1
    21    41     6    1
    22    37     6    1
    23    37    38    1
    24    37    39    1
    25     1     4    1
    26     1     2    1
    27     6    33    1
    28     2     7    1
    29    15    12    1
    30    13    12    1
    31    33    34    1
    32    33    35    1
    33    33    36    1
    34    12     7    1
    35    12    14    1
    36     7    16    1
    37     7     8    1
    38    17    16    1
    39    11     8    1
    40    16    19    1
    41    16    18    1
    42     8     9    1
    43     8    10    1
