@<TRIPOS>MOLECULE
1
 13 13 0 0 0
SMALL
GASTEIGER

@<TRIPOS>ATOM
      1 O          18.6066    6.1936    3.7503 O.3     1  UNL1       -0.3798
      2 C          18.5396    7.0120    2.5786 C.3     1  UNL1        0.0477
      3 H          17.8448    7.8450    2.7532 H       1  UNL1        0.0560
      4 H          18.1744    6.3874    1.7634 H       1  UNL1        0.0560
      5 C          19.9538    7.5375    2.3725 C.3     1  UNL1       -0.0274
      6 H          20.5753    6.7625    1.9269 H       1  UNL1        0.0288
      7 H          19.9801    8.4269    1.7475 H       1  UNL1        0.0288
      8 C          20.3777    7.8081    3.8142 C.3     1  UNL1       -0.0274
      9 H          20.0269    8.7913    4.1303 H       1  UNL1        0.0288
     10 H          21.4552    7.7624    3.9525 H       1  UNL1        0.0288
     11 C          19.6548    6.7036    4.5933 C.3     1  UNL1        0.0477
     12 H          20.3135    5.8663    4.8375 H       1  UNL1        0.0560
     13 H          19.2130    7.0802    5.5217 H       1  UNL1        0.0560
@<TRIPOS>BOND
     1     7     5    1
     2     4     2    1
     3     6     5    1
     4     5     2    1
     5     5     8    1
     6     2     3    1
     7     2     1    1
     8     1    11    1
     9     8    10    1
    10     8     9    1
    11     8    11    1
    12    11    12    1
    13    11    13    1
