@<TRIPOS>MOLECULE
2
 35 37 0 0 0
SMALL
GASTEIGER

@<TRIPOS>ATOM
      1 SI          5.9761   13.7634    2.5945 Si      1  UNL1        0.0000
      2 O           4.6156   13.2138    1.9947 O.3     1  UNL1        0.0000
      3 C           6.0794   15.6698    2.5897 C.ar    1  UNL1        0.0000
      4 C           6.4805   16.4096    3.6980 C.ar    1  UNL1        0.0000
      5 C           6.5398   17.7919    3.6556 C.ar    1  UNL1        0.0000
      6 C           6.1911   18.4623    2.4956 C.ar    1  UNL1        0.0000
      7 C           5.7865   17.7419    1.3833 C.ar    1  UNL1        0.0000
      8 C           5.7351   16.3595    1.4290 C.ar    1  UNL1        0.0000
      9 C           6.0882   13.1754    4.4024 C.ar    1  UNL1        0.0000
     10 C           7.3002   13.1498    5.0815 C.ar    1  UNL1        0.0000
     11 C           7.3726   12.7638    6.4085 C.ar    1  UNL1        0.0000
     12 C           6.2228   12.3921    7.0848 C.ar    1  UNL1        0.0000
     13 C           5.0065   12.4060    6.4228 C.ar    1  UNL1        0.0000
     14 C           4.9454   12.7955    5.0964 C.ar    1  UNL1        0.0000
     15 C           7.4751   13.1171    1.6117 C.ar    1  UNL1        0.0000
     16 C           7.3019   12.0214    0.7700 C.ar    1  UNL1        0.0000
     17 C           8.3497   11.5449    0.0010 C.ar    1  UNL1        0.0000
     18 C           9.5937   12.1512    0.0654 C.ar    1  UNL1        0.0000
     19 C           9.7820   13.2417    0.8972 C.ar    1  UNL1        0.0000
     20 C           8.7287   13.7194    1.6569 C.ar    1  UNL1        0.0000
     21 H           6.7466   15.8898    4.6085 H       1  UNL1        0.0000
     22 H           6.8554   18.3488    4.5287 H       1  UNL1        0.0000
     23 H           6.2332   19.5432    2.4602 H       1  UNL1        0.0000
     24 H           5.5109   18.2620    0.4765 H       1  UNL1        0.0000
     25 H           5.4232   15.7955    0.5569 H       1  UNL1        0.0000
     26 H           8.2012   13.4321    4.5564 H       1  UNL1        0.0000
     27 H           8.3266   12.7510    6.9198 H       1  UNL1        0.0000
     28 H           6.2758   12.0905    8.1228 H       1  UNL1        0.0000
     29 H           4.1059   12.1129    6.9464 H       1  UNL1        0.0000
     30 H           4.0013   12.8064    4.5721 H       1  UNL1        0.0000
     31 H           6.3279   11.5478    0.7181 H       1  UNL1        0.0000
     32 H           8.1964   10.6997   -0.6554 H       1  UNL1        0.0000
     33 H          10.4132   11.7802   -0.5363 H       1  UNL1        0.0000
     34 H          10.7499   13.7244    0.9456 H       1  UNL1        0.0000
     35 H           8.8762   14.5848    2.2895 H       1  UNL1        0.0000
@<TRIPOS>BOND
     1    32    17    1
     2    33    18    1
     3    17    18   ar
     4    17    16   ar
     5    18    19   ar
     6    24     7    1
     7    25     8    1
     8    31    16    1
     9    16    15   ar
    10    19    34    1
    11    19    20   ar
    12     7     8   ar
    13     7     6   ar
    14     8     3   ar
    15    15    20   ar
    16    15     1    1
    17    20    35    1
    18     2     1    1
    19    23     6    1
    20     6     5   ar
    21     3     1    1
    22     3     4   ar
    23     1     9    1
    24     5     4   ar
    25     5    22    1
    26     4    21    1
    27     9    10   ar
    28     9    14   ar
    29    26    10    1
    30    30    14    1
    31    10    11   ar
    32    14    13   ar
    33    11    27    1
    34    11    12   ar
    35    13    29    1
    36    13    12   ar
    37    12    28    1
