@<TRIPOS>MOLECULE
2
 35 37 0 0 0
SMALL
GASTEIGER

@<TRIPOS>ATOM
      1 SI          5.9661   13.7376    2.5513 Si      1  UNL1        0.0000
      2 O           4.6119   13.0755    2.0505 O.3     1  UNL1        0.0000
      3 C           5.9279   15.6604    2.5670 C.ar    1  UNL1        0.0000
      4 C           6.0024   16.3699    3.7644 C.ar    1  UNL1        0.0000
      5 C           5.8686   17.7473    3.7984 C.ar    1  UNL1        0.0000
      6 C           5.6486   18.4487    2.6260 C.ar    1  UNL1        0.0000
      7 C           5.5814   17.7635    1.4239 C.ar    1  UNL1        0.0000
      8 C           5.7226   16.3852    1.3918 C.ar    1  UNL1        0.0000
      9 C           6.1914   13.2518    4.3865 C.ar    1  UNL1        0.0000
     10 C           7.4400   13.0030    4.9417 C.ar    1  UNL1        0.0000
     11 C           7.5840   12.6935    6.2834 C.ar    1  UNL1        0.0000
     12 C           6.4700   12.6257    7.1026 C.ar    1  UNL1        0.0000
     13 C           5.2155   12.8657    6.5673 C.ar    1  UNL1        0.0000
     14 C           5.0852   13.1757    5.2253 C.ar    1  UNL1        0.0000
     15 C           7.4408   12.9854    1.5995 C.ar    1  UNL1        0.0000
     16 C           7.1653   11.8614    0.8159 C.ar    1  UNL1        0.0000
     17 C           8.1581   11.2718    0.0526 C.ar    1  UNL1        0.0000
     18 C           9.4445   11.7903    0.0588 C.ar    1  UNL1        0.0000
     19 C           9.7314   12.9019    0.8302 C.ar    1  UNL1        0.0000
     20 C           8.7350   13.4922    1.5910 C.ar    1  UNL1        0.0000
     21 H           6.1671   15.8276    4.6850 H       1  UNL1        0.0000
     22 H           5.9298   18.2737    4.7421 H       1  UNL1        0.0000
     23 H           5.5323   19.5244    2.6490 H       1  UNL1        0.0000
     24 H           5.4127   18.3058    0.5043 H       1  UNL1        0.0000
     25 H           5.6928   15.8617    0.4339 H       1  UNL1        0.0000
     26 H           8.3120   13.0484    4.3068 H       1  UNL1        0.0000
     27 H           8.5669   12.5029    6.6945 H       1  UNL1        0.0000
     28 H           6.5789   12.3846    8.1520 H       1  UNL1        0.0000
     29 H           4.3404   12.8113    7.2017 H       1  UNL1        0.0000
     30 H           4.1096   13.3619    4.8028 H       1  UNL1        0.0000
     31 H           6.1535   11.4528    0.8107 H       1  UNL1        0.0000
     32 H           7.9283   10.4117   -0.5608 H       1  UNL1        0.0000
     33 H          10.2179   11.3337   -0.5449 H       1  UNL1        0.0000
     34 H          10.7315   13.3161    0.8315 H       1  UNL1        0.0000
     35 H           8.9605   14.3735    2.1759 H       1  UNL1        0.0000
@<TRIPOS>BOND
     1    32    17    1
     2    33    18    1
     3    17    18   ar
     4    17    16   ar
     5    18    19   ar
     6    25     8    1
     7    24     7    1
     8    31    16    1
     9    16    15   ar
    10    19    34    1
    11    19    20   ar
    12     8     7   ar
    13     8     3   ar
    14     7     6   ar
    15    20    15   ar
    16    20    35    1
    17    15     1    1
    18     2     1    1
    19     1     3    1
    20     1     9    1
    21     3     4   ar
    22     6    23    1
    23     6     5   ar
    24     4     5   ar
    25     4    21    1
    26     5    22    1
    27    26    10    1
    28     9    10   ar
    29     9    14   ar
    30    30    14    1
    31    10    11   ar
    32    14    13   ar
    33    11    27    1
    34    11    12   ar
    35    13    12   ar
    36    13    29    1
    37    12    28    1
