@<TRIPOS>MOLECULE
2
 35 37 0 0 0
SMALL
GASTEIGER

@<TRIPOS>ATOM
      1 SI          9.3749    3.8750   11.0988 Si      1  UNL1        0.0000
      2 O           9.7445    5.3387   10.5710 O.3     1  UNL1        0.0000
      3 C           8.3545    4.0599   12.6930 C.ar    1  UNL1        0.0000
      4 C           8.1585    2.9975   13.5683 C.ar    1  UNL1        0.0000
      5 H           8.6025    2.0389   13.3416 H       1  UNL1        0.0000
      6 C           7.4098    3.1510   14.7217 C.ar    1  UNL1        0.0000
      7 H           7.2679    2.3130   15.3895 H       1  UNL1        0.0000
      8 C           6.8424    4.3779   15.0230 C.ar    1  UNL1        0.0000
      9 H           6.2582    4.4996   15.9237 H       1  UNL1        0.0000
     10 C           7.0275    5.4482   14.1640 C.ar    1  UNL1        0.0000
     11 H           6.5874    6.4086   14.3947 H       1  UNL1        0.0000
     12 C           7.7759    5.2832   13.0122 C.ar    1  UNL1        0.0000
     13 H           7.9154    6.1162   12.3314 H       1  UNL1        0.0000
     14 C          10.9554    2.8905   11.4581 C.ar    1  UNL1        0.0000
     15 C          12.1600    3.5480   11.6812 C.ar    1  UNL1        0.0000
     16 H          12.1759    4.6289   11.6325 H       1  UNL1        0.0000
     17 C          13.3188    2.8423   11.9510 C.ar    1  UNL1        0.0000
     18 H          14.2480    3.3686   12.1212 H       1  UNL1        0.0000
     19 C          13.2899    1.4586   12.0025 C.ar    1  UNL1        0.0000
     20 H          14.1927    0.9036   12.2143 H       1  UNL1        0.0000
     21 C          12.0996    0.7882   11.7755 C.ar    1  UNL1        0.0000
     22 H          12.0737   -0.2921   11.8079 H       1  UNL1        0.0000
     23 C          10.9456    1.5012   11.5041 C.ar    1  UNL1        0.0000
     24 H          10.0213    0.9728   11.3144 H       1  UNL1        0.0000
     25 C           8.3604    2.9415    9.7909 C.ar    1  UNL1        0.0000
     26 C           7.0730    2.4850   10.0496 C.ar    1  UNL1        0.0000
     27 H           6.6356    2.6630   11.0225 H       1  UNL1        0.0000
     28 C           6.3459    1.8115    9.0839 C.ar    1  UNL1        0.0000
     29 H           5.3459    1.4652    9.3047 H       1  UNL1        0.0000
     30 C           6.8979    1.5831    7.8350 C.ar    1  UNL1        0.0000
     31 H           6.3309    1.0601    7.0781 H       1  UNL1        0.0000
     32 C           8.1808    2.0269    7.5609 C.ar    1  UNL1        0.0000
     33 H           8.6178    1.8495    6.5882 H       1  UNL1        0.0000
     34 C           8.9019    2.6964    8.5329 C.ar    1  UNL1        0.0000
     35 H           9.9052    3.0383    8.3197 H       1  UNL1        0.0000
@<TRIPOS>BOND
     1    33    32    1
     2    31    30    1
     3    32    30   ar
     4    32    34   ar
     5    30    28   ar
     6    35    34    1
     7    34    25   ar
     8    28    29    1
     9    28    26   ar
    10    25    26   ar
    11    25     1    1
    12    26    27    1
    13     2     1    1
    14     1    14    1
    15     1     3    1
    16    24    23    1
    17    14    23   ar
    18    14    15   ar
    19    23    21   ar
    20    16    15    1
    21    15    17   ar
    22    21    22    1
    23    21    19   ar
    24    17    19   ar
    25    17    18    1
    26    19    20    1
    27    13    12    1
    28     3    12   ar
    29     3     4   ar
    30    12    10   ar
    31     5     4    1
    32     4     6   ar
    33    10    11    1
    34    10     8   ar
    35     6     8   ar
    36     6     7    1
    37     8     9    1
