@<TRIPOS>MOLECULE
2
 41 40 0 0 0
SMALL
GASTEIGER

@<TRIPOS>ATOM
      1 SI          7.0587    5.8545    7.0518 Si      1  UNL1        0.0000
      2 O           6.6518    5.6844    5.4585 O.3     1  UNL1        0.0000
      3 C           5.4300    5.5209    8.0992 C.3     1  UNL1        0.0000
      4 C           4.6483    4.3226    7.5489 C.3     1  UNL1        0.0000
      5 H           3.6911    4.2393    8.0638 H       1  UNL1        0.0000
      6 H           5.1790    3.3884    7.6918 H       1  UNL1        0.0000
      7 H           4.4506    4.4407    6.4869 H       1  UNL1        0.0000
      8 C           4.4718    6.7157    8.0327 C.3     1  UNL1        0.0000
      9 H           3.5500    6.4768    8.5637 H       1  UNL1        0.0000
     10 H           4.2171    6.9333    6.9998 H       1  UNL1        0.0000
     11 H           4.8935    7.6043    8.4922 H       1  UNL1        0.0000
     12 C           5.7469    5.2488    9.5711 C.3     1  UNL1        0.0000
     13 H           6.3367    6.0486   10.0088 H       1  UNL1        0.0000
     14 H           6.2927    4.3168    9.6855 H       1  UNL1        0.0000
     15 H           4.8203    5.1601   10.1380 H       1  UNL1        0.0000
     16 C           7.7417    7.6833    7.2566 C.3     1  UNL1        0.0000
     17 C           6.8782    8.6373    6.4246 C.3     1  UNL1        0.0000
     18 H           7.3150    9.6358    6.4234 H       1  UNL1        0.0000
     19 H           5.8687    8.7122    6.8179 H       1  UNL1        0.0000
     20 H           6.8360    8.2785    5.3943 H       1  UNL1        0.0000
     21 C           7.7489    8.1464    8.7156 C.3     1  UNL1        0.0000
     22 H           8.3497    7.4799    9.3289 H       1  UNL1        0.0000
     23 H           6.7490    8.1870    9.1360 H       1  UNL1        0.0000
     24 H           8.1783    9.1459    8.7830 H       1  UNL1        0.0000
     25 C           9.1743    7.8263    6.7321 C.3     1  UNL1        0.0000
     26 H           9.4728    8.8743    6.7723 H       1  UNL1        0.0000
     27 H           9.2477    7.4986    5.6995 H       1  UNL1        0.0000
     28 H           9.8751    7.2644    7.3421 H       1  UNL1        0.0000
     29 C           8.4386    4.4744    7.2679 C.3     1  UNL1        0.0000
     30 C           7.7895    3.0931    7.1149 C.3     1  UNL1        0.0000
     31 H           8.5551    2.3213    7.0296 H       1  UNL1        0.0000
     32 H           7.1594    3.0538    6.2244 H       1  UNL1        0.0000
     33 H           7.1805    2.8522    7.9816 H       1  UNL1        0.0000
     34 C           9.1442    4.5295    8.6253 C.3     1  UNL1        0.0000
     35 H           9.8955    3.7422    8.6838 H       1  UNL1        0.0000
     36 H           8.4456    4.3908    9.4444 H       1  UNL1        0.0000
     37 H           9.6455    5.4829    8.7673 H       1  UNL1        0.0000
     38 C           9.5085    4.6048    6.1750 C.3     1  UNL1        0.0000
     39 H          10.2172    5.3925    6.4043 H       1  UNL1        0.0000
     40 H           9.0611    4.8326    5.2067 H       1  UNL1        0.0000
     41 H          10.0699    3.6742    6.0876 H       1  UNL1        0.0000
@<TRIPOS>BOND
     1    40    38    1
     2    20    17    1
     3     2     1    1
     4    27    25    1
     5    41    38    1
     6    38    39    1
     7    38    29    1
     8    32    30    1
     9    18    17    1
    10    17    19    1
    11    17    16    1
    12     7     4    1
    13    25    26    1
    14    25    16    1
    15    25    28    1
    16    10     8    1
    17    31    30    1
    18     1    16    1
    19     1    29    1
    20     1     3    1
    21    30    29    1
    22    30    33    1
    23    16    21    1
    24    29    34    1
    25     4     6    1
    26     4     5    1
    27     4     3    1
    28     8     3    1
    29     8    11    1
    30     8     9    1
    31     3    12    1
    32    34    35    1
    33    34    37    1
    34    34    36    1
    35    21    24    1
    36    21    23    1
    37    21    22    1
    38    12    14    1
    39    12    13    1
    40    12    15    1
