@<TRIPOS>MOLECULE
2
 41 40 0 0 0
SMALL
GASTEIGER

@<TRIPOS>ATOM
      1 SI          7.1075    3.7806    0.9281 Si      1  UNL1        0.0000
      2 O           6.5814    4.8149    2.0865 O.3     1  UNL1        0.0000
      3 C           8.5801    2.9383    1.9298 C.3     1  UNL1        0.0000
      4 C           9.0443    1.6029    1.3392 C.3     1  UNL1        0.0000
      5 H           9.3983    1.7397    0.3209 H       1  UNL1        0.0000
      6 H           8.2497    0.8640    1.3253 H       1  UNL1        0.0000
      7 H           9.8659    1.1996    1.9312 H       1  UNL1        0.0000
      8 C           8.0873    2.7160    3.3608 C.3     1  UNL1        0.0000
      9 H           8.9117    2.4398    4.0175 H       1  UNL1        0.0000
     10 H           7.3233    1.9449    3.4169 H       1  UNL1        0.0000
     11 H           7.6418    3.6712    3.7538 H       1  UNL1        0.0000
     12 C           9.8099    3.8488    2.0179 C.3     1  UNL1        0.0000
     13 H          10.5537    3.4037    2.6799 H       1  UNL1        0.0000
     14 H           9.5516    4.8283    2.4140 H       1  UNL1        0.0000
     15 H          10.2762    3.9793    1.0457 H       1  UNL1        0.0000
     16 C           7.6821    4.8870   -0.5822 C.3     1  UNL1        0.0000
     17 C           8.6554    4.1360   -1.4921 C.3     1  UNL1        0.0000
     18 H           8.9555    4.7740   -2.3230 H       1  UNL1        0.0000
     19 H           8.1973    3.2402   -1.9015 H       1  UNL1        0.0000
     20 H           9.5529    3.8444   -0.9559 H       1  UNL1        0.0000
     21 C           6.5007    5.3453   -1.4445 C.3     1  UNL1        0.0000
     22 H           5.7873    5.9161   -0.8541 H       1  UNL1        0.0000
     23 H           5.9848    4.5084   -1.9051 H       1  UNL1        0.0000
     24 H           6.8613    5.9919   -2.2453 H       1  UNL1        0.0000
     25 C           8.3612    6.1613   -0.0673 C.3     1  UNL1        0.0000
     26 H           8.5431    6.8498   -0.8927 H       1  UNL1        0.0000
     27 H           9.3122    5.9515    0.4081 H       1  UNL1        0.0000
     28 H           7.7283    6.6612    0.6655 H       1  UNL1        0.0000
     29 C           5.6694    2.5213    0.4896 C.3     1  UNL1        0.0000
     30 C           5.9744    1.7638   -0.8050 C.3     1  UNL1        0.0000
     31 H           5.1904    1.0322   -0.9987 H       1  UNL1        0.0000
     32 H           6.9205    1.2340   -0.7343 H       1  UNL1        0.0000
     33 H           6.0209    2.4323   -1.6593 H       1  UNL1        0.0000
     34 C           4.3400    3.2702    0.3403 C.3     1  UNL1        0.0000
     35 H           4.3809    4.0423   -0.4208 H       1  UNL1        0.0000
     36 H           4.0750    3.7212    1.2932 H       1  UNL1        0.0000
     37 H           3.5511    2.5697    0.0671 H       1  UNL1        0.0000
     38 C           5.4323    1.4808    1.5912 C.3     1  UNL1        0.0000
     39 H           5.1950    1.9648    2.5346 H       1  UNL1        0.0000
     40 H           6.2846    0.8215    1.7246 H       1  UNL1        0.0000
     41 H           4.5791    0.8591    1.3187 H       1  UNL1        0.0000
@<TRIPOS>BOND
     1    18    17    1
     2    24    21    1
     3    23    21    1
     4    19    17    1
     5    33    30    1
     6    17    20    1
     7    17    16    1
     8    21    22    1
     9    21    16    1
    10    31    30    1
    11    26    25    1
    12    30    32    1
    13    30    29    1
    14    16    25    1
    15    16     1    1
    16    35    34    1
    17    25    27    1
    18    25    28    1
    19    37    34    1
    20     5     4    1
    21    34    29    1
    22    34    36    1
    23    29     1    1
    24    29    38    1
    25     1     3    1
    26     1     2    1
    27    15    12    1
    28    41    38    1
    29     6     4    1
    30     4     3    1
    31     4     7    1
    32    38    40    1
    33    38    39    1
    34     3    12    1
    35     3     8    1
    36    12    14    1
    37    12    13    1
    38     8    10    1
    39     8    11    1
    40     8     9    1
