@<TRIPOS>MOLECULE
2
 41 40 0 0 0
SMALL
GASTEIGER

@<TRIPOS>ATOM
      1 SI          2.0665    7.2759   10.0554 Si      1  UNL1        0.0000
      2 O           2.2532    5.7031   10.2040 O.3     1  UNL1        0.0000
      3 C           0.1357    7.6159   10.0571 C.3     1  UNL1        0.0000
      4 C          -0.5271    6.8752   11.2219 C.3     1  UNL1        0.0000
      5 H          -1.6110    6.9880   11.1701 H       1  UNL1        0.0000
      6 H          -0.1998    7.2495   12.1847 H       1  UNL1        0.0000
      7 H          -0.2920    5.8150   11.1692 H       1  UNL1        0.0000
      8 C          -0.4885    7.0268    8.7900 C.3     1  UNL1        0.0000
      9 H          -1.5772    7.0553    8.8549 H       1  UNL1        0.0000
     10 H          -0.1787    5.9877    8.6857 H       1  UNL1        0.0000
     11 H          -0.1977    7.5782    7.9005 H       1  UNL1        0.0000
     12 C          -0.2313    9.0960   10.1441 C.3     1  UNL1        0.0000
     13 H          -1.3119    9.2211   10.0623 H       1  UNL1        0.0000
     14 H           0.2371    9.6676    9.3475 H       1  UNL1        0.0000
     15 H           0.0790    9.5178   11.0964 H       1  UNL1        0.0000
     16 C           2.8901    7.5966    8.2948 C.3     1  UNL1        0.0000
     17 C           2.5621    6.3828    7.4298 C.3     1  UNL1        0.0000
     18 H           3.1736    6.3678    6.5265 H       1  UNL1        0.0000
     19 H           1.5156    6.3748    7.1398 H       1  UNL1        0.0000
     20 H           2.7769    5.4488    8.0107 H       1  UNL1        0.0000
     21 C           2.4308    8.8687    7.5817 C.3     1  UNL1        0.0000
     22 H           2.9428    8.9713    6.6235 H       1  UNL1        0.0000
     23 H           2.6580    9.7466    8.1807 H       1  UNL1        0.0000
     24 H           1.3625    8.8573    7.3884 H       1  UNL1        0.0000
     25 C           4.4139    7.6466    8.4047 C.3     1  UNL1        0.0000
     26 H           4.8643    7.6789    7.4101 H       1  UNL1        0.0000
     27 H           4.7757    6.7597    8.9231 H       1  UNL1        0.0000
     28 H           4.7460    8.5308    8.9390 H       1  UNL1        0.0000
     29 C           3.0241    8.1850   11.4981 C.3     1  UNL1        0.0000
     30 C           3.2084    9.6805   11.2396 C.3     1  UNL1        0.0000
     31 H           3.7349   10.1426   12.0756 H       1  UNL1        0.0000
     32 H           2.2504   10.1798   11.1273 H       1  UNL1        0.0000
     33 H           3.7898    9.8598   10.3395 H       1  UNL1        0.0000
     34 C           4.4034    7.5498   11.7107 C.3     1  UNL1        0.0000
     35 H           4.8069    7.8374   12.6824 H       1  UNL1        0.0000
     36 H           5.1125    7.8698   10.9553 H       1  UNL1        0.0000
     37 H           4.3321    6.4654   11.6753 H       1  UNL1        0.0000
     38 C           2.2607    8.0312   12.8148 C.3     1  UNL1        0.0000
     39 H           2.8459    8.4361   13.6422 H       1  UNL1        0.0000
     40 H           2.0616    6.9825   13.0205 H       1  UNL1        0.0000
     41 H           1.3175    8.5687   12.7876 H       1  UNL1        0.0000
@<TRIPOS>BOND
     1    18    17    1
     2    22    21    1
     3    19    17    1
     4    24    21    1
     5    26    25    1
     6    17    20    1
     7    17    16    1
     8    21    23    1
     9    21    16    1
    10    11     8    1
    11    16    25    1
    12    16     1    1
    13    25    27    1
    14    25    28    1
    15    10     8    1
    16     8     9    1
    17     8     3    1
    18    14    12    1
    19     1     3    1
    20     1     2    1
    21     1    29    1
    22     3    12    1
    23     3     4    1
    24    13    12    1
    25    12    15    1
    26    33    30    1
    27    36    34    1
    28    32    30    1
    29     7     4    1
    30     5     4    1
    31     4     6    1
    32    30    29    1
    33    30    31    1
    34    29    34    1
    35    29    38    1
    36    37    34    1
    37    34    35    1
    38    41    38    1
    39    38    40    1
    40    38    39    1
