@<TRIPOS>MOLECULE
2
 41 40 0 0 0
SMALL
GASTEIGER

@<TRIPOS>ATOM
      1 SI          2.2249    1.3126   11.6191 Si      1  UNL1        0.0000
      2 O           2.4882    1.8954   10.1753 O.3     1  UNL1        0.0000
      3 C           3.5718   -0.0679   11.9548 C.3     1  UNL1        0.0000
      4 C           4.9560    0.5717   12.0762 C.3     1  UNL1        0.0000
      5 H           5.7293   -0.1973   12.1239 H       1  UNL1        0.0000
      6 H           5.0356    1.1736   12.9772 H       1  UNL1        0.0000
      7 H           5.1533    1.2005   11.2115 H       1  UNL1        0.0000
      8 C           3.3190   -0.8798   13.2228 C.3     1  UNL1        0.0000
      9 H           4.1234   -1.6018   13.3735 H       1  UNL1        0.0000
     10 H           2.3869   -1.4334   13.1563 H       1  UNL1        0.0000
     11 H           3.2726   -0.2381   14.0983 H       1  UNL1        0.0000
     12 C           3.6334   -1.0292   10.7639 C.3     1  UNL1        0.0000
     13 H           4.5434   -1.6300   10.8032 H       1  UNL1        0.0000
     14 H           3.6236   -0.4755    9.8290 H       1  UNL1        0.0000
     15 H           2.7895   -1.7093   10.7572 H       1  UNL1        0.0000
     16 C           0.3978    0.5940   11.7309 C.3     1  UNL1        0.0000
     17 C          -0.1142    0.4123   13.1606 C.3     1  UNL1        0.0000
     18 H          -1.1181   -0.0155   13.1472 H       1  UNL1        0.0000
     19 H          -0.1649    1.3594   13.6903 H       1  UNL1        0.0000
     20 H           0.5291   -0.2570   13.7250 H       1  UNL1        0.0000
     21 C           0.3147   -0.7706   11.0433 C.3     1  UNL1        0.0000
     22 H          -0.7245   -1.0977   10.9727 H       1  UNL1        0.0000
     23 H           0.8553   -1.5253   11.6060 H       1  UNL1        0.0000
     24 H           0.7263   -0.7275   10.0385 H       1  UNL1        0.0000
     25 C          -0.5632    1.5255   10.9819 C.3     1  UNL1        0.0000
     26 H          -1.4845    1.0021   10.7218 H       1  UNL1        0.0000
     27 H          -0.0977    1.8830   10.0657 H       1  UNL1        0.0000
     28 H          -0.8357    2.3873   11.5819 H       1  UNL1        0.0000
     29 C           2.4352    2.8890   12.7655 C.3     1  UNL1        0.0000
     30 C           1.2083    3.7843   12.6162 C.3     1  UNL1        0.0000
     31 H           1.3776    4.7521   13.0935 H       1  UNL1        0.0000
     32 H           0.3259    3.3448   13.0706 H       1  UNL1        0.0000
     33 H           1.0149    3.9581   11.5481 H       1  UNL1        0.0000
     34 C           3.6028    3.7078   12.2281 C.3     1  UNL1        0.0000
     35 H           3.6562    4.6757   12.7297 H       1  UNL1        0.0000
     36 H           3.4513    3.8881   11.1326 H       1  UNL1        0.0000
     37 H           4.5526    3.1993   12.3562 H       1  UNL1        0.0000
     38 C           2.6679    2.6112   14.2503 C.3     1  UNL1        0.0000
     39 H           2.7284    3.5480   14.8074 H       1  UNL1        0.0000
     40 H           3.5976    2.0704   14.4073 H       1  UNL1        0.0000
     41 H           1.8568    2.0214   14.6682 H       1  UNL1        0.0000
@<TRIPOS>BOND
     1    14    12    1
     2    24    21    1
     3    27    25    1
     4     2     1    1
     5    26    25    1
     6    15    12    1
     7    12    13    1
     8    12     3    1
     9    22    21    1
    10    25    28    1
    11    25    16    1
    12    21    23    1
    13    21    16    1
    14    36    34    1
    15     7     4    1
    16    33    30    1
    17     1    16    1
    18     1     3    1
    19     1    29    1
    20    16    17    1
    21     3     4    1
    22     3     8    1
    23     4     5    1
    24     4     6    1
    25    34    37    1
    26    34    35    1
    27    34    29    1
    28    30    29    1
    29    30    32    1
    30    30    31    1
    31    29    38    1
    32    18    17    1
    33    10     8    1
    34    17    19    1
    35    17    20    1
    36     8     9    1
    37     8    11    1
    38    38    40    1
    39    38    41    1
    40    38    39    1
