@<TRIPOS>MOLECULE
1
 50 52 0 0 0
SMALL
GASTEIGER

@<TRIPOS>ATOM
      1 O           0.3396    2.8064   13.4181 O.3     1  UNL1       -0.2866
      2 C           0.7235    3.7876   14.2319 C.ar    1  UNL1        0.1948
      3 C           1.6777    4.7414   13.8160 C.ar    1  UNL1        0.0328
      4 C           2.1929    5.6583   14.7310 C.ar    1  UNL1       -0.0331
      5 C           1.7214    5.6520   16.0334 C.ar    1  UNL1       -0.0535
      6 C           0.7102    4.7988   16.4452 C.ar    1  UNL1       -0.0331
      7 C           0.2089    3.8573   15.5446 C.ar    1  UNL1        0.0328
      8 C           2.0492    4.8592   12.3833 C.ar    1  UNL1       -0.0139
      9 C           3.2732    4.4367   11.8733 C.ar    1  UNL1       -0.0539
     10 C           3.5783    4.6209   10.5358 C.ar    1  UNL1       -0.0612
     11 C           2.6755    5.2436    9.6911 C.ar    1  UNL1       -0.0617
     12 C           1.4702    5.6998   10.1964 C.ar    1  UNL1       -0.0612
     13 C           1.1628    5.5139   11.5323 C.ar    1  UNL1       -0.0539
     14 C          -0.9302    2.9990   15.9482 C.ar    1  UNL1       -0.0139
     15 C          -2.1918    3.2445   15.4174 C.ar    1  UNL1       -0.0539
     16 C          -3.3003    2.5615   15.8882 C.ar    1  UNL1       -0.0612
     17 C          -3.1639    1.6144   16.8875 C.ar    1  UNL1       -0.0617
     18 C          -1.9083    1.3408   17.4037 C.ar    1  UNL1       -0.0612
     19 C          -0.8024    2.0321   16.9439 C.ar    1  UNL1       -0.0539
     20 C           3.2364    6.6756   14.3255 C.3     1  UNL1       -0.0208
     21 C           2.7098    8.0999   14.5142 C.3     1  UNL1       -0.0586
     22 C           4.5304    6.4618   15.1140 C.3     1  UNL1       -0.0586
     23 C           0.1389    4.9609   17.8377 C.3     1  UNL1       -0.0208
     24 C          -0.5402    6.3276   17.9644 C.3     1  UNL1       -0.0586
     25 C           1.2124    4.7884   18.9139 C.3     1  UNL1       -0.0586
     26 H           2.1224    6.3643   16.7365 H       1  UNL1        0.0624
     27 H           3.9952    3.9725   12.5253 H       1  UNL1        0.0624
     28 H           4.5292    4.2804   10.1528 H       1  UNL1        0.0618
     29 H           2.9157    5.3847    8.6476 H       1  UNL1        0.0618
     30 H           0.7688    6.2096    9.5520 H       1  UNL1        0.0618
     31 H           0.2360    5.8955   11.9328 H       1  UNL1        0.0624
     32 H          -2.3046    3.9969   14.6513 H       1  UNL1        0.0624
     33 H          -4.2772    2.7771   15.4832 H       1  UNL1        0.0618
     34 H          -4.0347    1.1028   17.2720 H       1  UNL1        0.0618
     35 H          -1.7918    0.5999   18.1820 H       1  UNL1        0.0618
     36 H           0.1669    1.8397   17.3746 H       1  UNL1        0.0624
     37 H           3.4627    6.5446   13.2639 H       1  UNL1        0.0344
     38 H          -0.6258    4.1976   18.0007 H       1  UNL1        0.0344
     39 H           3.4425    8.8203   14.1566 H       1  UNL1        0.0235
     40 H           2.5074    8.3096   15.5613 H       1  UNL1        0.0235
     41 H           1.7888    8.2364   13.9520 H       1  UNL1        0.0235
     42 H           4.8971    5.4478   14.9707 H       1  UNL1        0.0235
     43 H           4.3712    6.6197   16.1777 H       1  UNL1        0.0235
     44 H           5.2955    7.1571   14.7752 H       1  UNL1        0.0235
     45 H          -1.0014    6.4278   18.9447 H       1  UNL1        0.0235
     46 H          -1.3133    6.4334   17.2065 H       1  UNL1        0.0235
     47 H           0.1769    7.1348   17.8377 H       1  UNL1        0.0235
     48 H           1.6957    3.8192   18.8189 H       1  UNL1        0.0235
     49 H           0.7616    4.8525   19.9020 H       1  UNL1        0.0235
     50 H           1.9750    5.5592   18.8382 H       1  UNL1        0.0235
@<TRIPOS>BOND
     1    29    11    1
     2    30    12    1
     3    11    12   ar
     4    11    10   ar
     5    28    10    1
     6    12    13   ar
     7    10     9   ar
     8    13    31    1
     9    13     8   ar
    10     9     8   ar
    11     9    27    1
    12     8     3    1
    13    37    20    1
    14     1     2    1
    15     3     2   ar
    16     3     4   ar
    17    41    21    1
    18    39    21    1
    19     2     7   ar
    20    20    21    1
    21    20     4    1
    22    20    22    1
    23    21    40    1
    24    32    15    1
    25     4     5   ar
    26    44    22    1
    27    42    22    1
    28    22    43    1
    29    15    16   ar
    30    15    14   ar
    31    33    16    1
    32     7    14    1
    33     7     6   ar
    34    16    17   ar
    35    14    19   ar
    36     5     6   ar
    37     5    26    1
    38     6    23    1
    39    17    34    1
    40    17    18   ar
    41    19    36    1
    42    19    18   ar
    43    46    24    1
    44    18    35    1
    45    23    24    1
    46    23    38    1
    47    23    25    1
    48    47    24    1
    49    24    45    1
    50    48    25    1
    51    50    25    1
    52    25    49    1
