@<TRIPOS>MOLECULE
1
 50 52 0 0 0
SMALL
GASTEIGER

@<TRIPOS>ATOM
      1 O           0.1446   -0.5675   12.0456 O.3     1  UNL1       -0.2866
      2 C           0.2642   -1.8911   12.0087 C.ar    1  UNL1        0.1948
      3 C          -0.7800   -2.7046   12.4931 C.ar    1  UNL1        0.0328
      4 C          -0.6429   -4.0896   12.5351 C.ar    1  UNL1       -0.0331
      5 C           0.5437   -4.6596   12.1059 C.ar    1  UNL1       -0.0535
      6 C           1.5782   -3.8955   11.5919 C.ar    1  UNL1       -0.0331
      7 C           1.4314   -2.5088   11.5103 C.ar    1  UNL1        0.0328
      8 C           2.5114   -1.7032   10.9002 C.ar    1  UNL1       -0.0139
      9 C           2.8444   -1.9010    9.5611 C.ar    1  UNL1       -0.0539
     10 C           3.9274   -1.2503    9.0006 C.ar    1  UNL1       -0.0612
     11 C           4.6893   -0.3829    9.7673 C.ar    1  UNL1       -0.0617
     12 C           4.3504   -0.1619   11.0901 C.ar    1  UNL1       -0.0612
     13 C           3.2667   -0.8152   11.6551 C.ar    1  UNL1       -0.0539
     14 C          -2.0438   -2.0905   12.9654 C.ar    1  UNL1       -0.0139
     15 C          -3.1483   -2.0391   12.1184 C.ar    1  UNL1       -0.0539
     16 C          -4.3566   -1.5400   12.5710 C.ar    1  UNL1       -0.0612
     17 C          -4.4756   -1.0890   13.8752 C.ar    1  UNL1       -0.0617
     18 C          -3.3813   -1.1342   14.7216 C.ar    1  UNL1       -0.0612
     19 C          -2.1696   -1.6288   14.2709 C.ar    1  UNL1       -0.0539
     20 C          -1.7458   -4.9723   13.0754 C.3     1  UNL1       -0.0208
     21 C          -1.2796   -5.6982   14.3396 C.3     1  UNL1       -0.0586
     22 C          -2.2150   -5.9694   12.0144 C.3     1  UNL1       -0.0586
     23 C           2.8703   -4.5862   11.2104 C.3     1  UNL1       -0.0208
     24 C           3.5077   -5.2150   12.4530 C.3     1  UNL1       -0.0586
     25 C           2.6472   -5.6383   10.1228 C.3     1  UNL1       -0.0586
     26 H           0.6648   -5.7288   12.1723 H       1  UNL1        0.0624
     27 H           2.2561   -2.5828    8.9636 H       1  UNL1        0.0624
     28 H           4.1899   -1.4329    7.9681 H       1  UNL1        0.0618
     29 H           5.5424    0.1167    9.3325 H       1  UNL1        0.0618
     30 H           4.9418    0.5117   11.6916 H       1  UNL1        0.0618
     31 H           3.0207   -0.6618   12.6942 H       1  UNL1        0.0624
     32 H          -3.0525   -2.3997   11.1039 H       1  UNL1        0.0624
     33 H          -5.2075   -1.5067   11.9062 H       1  UNL1        0.0618
     34 H          -5.4208   -0.7065   14.2311 H       1  UNL1        0.0618
     35 H          -3.4697   -0.7873   15.7397 H       1  UNL1        0.0618
     36 H          -1.3231   -1.6831   14.9399 H       1  UNL1        0.0624
     37 H          -2.5986   -4.3437   13.3469 H       1  UNL1        0.0344
     38 H           3.5719   -3.8439   10.8225 H       1  UNL1        0.0344
     39 H          -2.0953   -6.2832   14.7588 H       1  UNL1        0.0235
     40 H          -0.9509   -4.9784   15.0858 H       1  UNL1        0.0235
     41 H          -0.4525   -6.3694   14.1228 H       1  UNL1        0.0235
     42 H          -2.5432   -5.4423   11.1216 H       1  UNL1        0.0235
     43 H          -3.0479   -6.5572   12.3945 H       1  UNL1        0.0235
     44 H          -1.4151   -6.6503   11.7353 H       1  UNL1        0.0235
     45 H           2.8740   -5.9947   12.8675 H       1  UNL1        0.0235
     46 H           3.6632   -4.4575   13.2180 H       1  UNL1        0.0235
     47 H           4.4705   -5.6537   12.1997 H       1  UNL1        0.0235
     48 H           2.0033   -6.4394   10.4763 H       1  UNL1        0.0235
     49 H           3.5983   -6.0731    9.8226 H       1  UNL1        0.0235
     50 H           2.1827   -5.1886    9.2484 H       1  UNL1        0.0235
@<TRIPOS>BOND
     1    28    10    1
     2    27     9    1
     3    10     9   ar
     4    10    11   ar
     5    50    25    1
     6    29    11    1
     7     9     8   ar
     8    11    12   ar
     9    49    25    1
    10    25    48    1
    11    25    23    1
    12    38    23    1
    13     8     7    1
    14     8    13   ar
    15    12    13   ar
    16    12    30    1
    17    32    15    1
    18    42    22    1
    19    23     6    1
    20    23    24    1
    21     7     6   ar
    22     7     2   ar
    23     6     5   ar
    24    13    31    1
    25    44    22    1
    26    33    16    1
    27     2     1    1
    28     2     3   ar
    29    22    43    1
    30    22    20    1
    31     5    26    1
    32     5     4   ar
    33    15    16   ar
    34    15    14   ar
    35    47    24    1
    36    24    45    1
    37    24    46    1
    38     3     4   ar
    39     3    14    1
    40     4    20    1
    41    16    17   ar
    42    14    19   ar
    43    20    37    1
    44    20    21    1
    45    17    34    1
    46    17    18   ar
    47    41    21    1
    48    19    18   ar
    49    19    36    1
    50    21    39    1
    51    21    40    1
    52    18    35    1
