@<TRIPOS>MOLECULE
2
 44 43 0 0 0
SMALL
GASTEIGER

@<TRIPOS>ATOM
      1 SI         11.2352    4.1896   35.6945 Si      1  UNL1        0.0000
      2 O          11.3463    2.6014   35.6681 O.3     1  UNL1        0.0000
      3 O          12.6910    4.9482   35.5306 O.3     1  UNL1        0.0000
      4 O          10.3026    4.8623   34.5286 O.3     1  UNL1        0.0000
      5 O          10.4931    4.5709   37.1054 O.3     1  UNL1        0.0000
      6 C          10.5875    5.3450   33.2299 C.3     1  UNL1        0.0000
      7 C          11.3484    6.6708   33.3313 C.3     1  UNL1        0.0000
      8 C          11.4114    4.3182   32.4565 C.3     1  UNL1        0.0000
      9 C           9.2402    5.5713   32.5312 C.3     1  UNL1        0.0000
     10 C           9.9611    5.7933   37.5894 C.3     1  UNL1        0.0000
     11 C          11.0184    6.8975   37.5294 C.3     1  UNL1        0.0000
     12 C           9.5496    5.5475   39.0459 C.3     1  UNL1        0.0000
     13 C           8.7358    6.2116   36.7718 C.3     1  UNL1        0.0000
     14 C          13.9884    4.6382   35.9984 C.3     1  UNL1        0.0000
     15 C          13.9433    3.6250   37.1434 C.3     1  UNL1        0.0000
     16 C          14.6182    5.9534   36.4830 C.3     1  UNL1        0.0000
     17 C          14.8051    4.0697   34.8318 C.3     1  UNL1        0.0000
     18 H          15.8435    3.9417   35.1268 H       1  UNL1        0.0000
     19 H          14.7624    4.7494   33.9835 H       1  UNL1        0.0000
     20 H          14.3944    3.1035   34.5445 H       1  UNL1        0.0000
     21 H          11.5995    7.0427   32.3415 H       1  UNL1        0.0000
     22 H          12.2552    6.5098   33.9043 H       1  UNL1        0.0000
     23 H          10.7391    7.4109   33.8443 H       1  UNL1        0.0000
     24 H          13.4914    2.6851   36.7904 H       1  UNL1        0.0000
     25 H          13.3366    4.0277   37.9521 H       1  UNL1        0.0000
     26 H          14.9497    3.4376   37.5087 H       1  UNL1        0.0000
     27 H          14.0423    6.3637   37.3071 H       1  UNL1        0.0000
     28 H          15.6395    5.7844   36.8132 H       1  UNL1        0.0000
     29 H          14.6233    6.6801   35.6748 H       1  UNL1        0.0000
     30 H           8.6284    6.2552   33.1136 H       1  UNL1        0.0000
     31 H           8.7073    4.6298   32.4332 H       1  UNL1        0.0000
     32 H           9.3982    5.9944   31.5426 H       1  UNL1        0.0000
     33 H           8.8284    4.7366   39.0917 H       1  UNL1        0.0000
     34 H           9.1024    6.4454   39.4646 H       1  UNL1        0.0000
     35 H          10.4183    5.2735   39.6361 H       1  UNL1        0.0000
     36 H          12.3417    4.1418   32.9867 H       1  UNL1        0.0000
     37 H          11.6235    4.6727   31.4508 H       1  UNL1        0.0000
     38 H          10.8577    3.3856   32.4078 H       1  UNL1        0.0000
     39 H           9.0025    6.2233   35.7217 H       1  UNL1        0.0000
     40 H           7.9273    5.4996   36.9135 H       1  UNL1        0.0000
     41 H           8.3948    7.1967   37.0793 H       1  UNL1        0.0000
     42 H          11.3495    7.0232   36.5041 H       1  UNL1        0.0000
     43 H          11.8739    6.6185   38.1385 H       1  UNL1        0.0000
     44 H          10.6126    7.8353   37.9003 H       1  UNL1        0.0000
@<TRIPOS>BOND
     1    37     8    1
     2    32     9    1
     3    21     7    1
     4    38     8    1
     5    31     9    1
     6     8    36    1
     7     8     6    1
     8     9    30    1
     9     9     6    1
    10     6     7    1
    11     6     4    1
    12     7    23    1
    13     7    22    1
    14    19    17    1
    15     4     1    1
    16    20    17    1
    17    17    18    1
    18    17    14    1
    19     3     1    1
    20     3    14    1
    21     2     1    1
    22    29    16    1
    23     1     5    1
    24    39    13    1
    25    14    16    1
    26    14    15    1
    27    16    28    1
    28    16    27    1
    29    42    11    1
    30    13    40    1
    31    13    41    1
    32    13    10    1
    33    24    15    1
    34     5    10    1
    35    15    26    1
    36    15    25    1
    37    11    10    1
    38    11    44    1
    39    11    43    1
    40    10    12    1
    41    12    33    1
    42    12    34    1
    43    12    35    1
