@<TRIPOS>MOLECULE
2
 44 43 0 0 0
SMALL
GASTEIGER

@<TRIPOS>ATOM
      1 SI         13.2679   -0.1149   39.0135 Si      1  UNL1        0.0000
      2 O          12.8134    0.2754   37.5419 O.3     1  UNL1        0.0000
      3 O          14.8497   -0.4916   39.1847 O.3     1  UNL1        0.0000
      4 O          12.9710    1.1360   40.0467 O.3     1  UNL1        0.0000
      5 O          12.4596   -1.4712   39.4534 O.3     1  UNL1        0.0000
      6 C          16.0128    0.2201   38.8061 C.3     1  UNL1        0.0000
      7 C          17.2034   -0.6786   39.1673 C.3     1  UNL1        0.0000
      8 C          16.0903    1.5304   39.5917 C.3     1  UNL1        0.0000
      9 C          16.0013    0.4877   37.2983 C.3     1  UNL1        0.0000
     10 C          11.7354    1.7855   40.2836 C.3     1  UNL1        0.0000
     11 C          10.9102    0.9585   41.2765 C.3     1  UNL1        0.0000
     12 C          10.9325    1.9632   38.9896 C.3     1  UNL1        0.0000
     13 C          12.0752    3.1480   40.8996 C.3     1  UNL1        0.0000
     14 C          12.7746   -2.4681   40.4160 C.3     1  UNL1        0.0000
     15 C          13.3939   -1.8553   41.6709 C.3     1  UNL1        0.0000
     16 C          13.7586   -3.4644   39.7974 C.3     1  UNL1        0.0000
     17 C          11.4605   -3.1747   40.7662 C.3     1  UNL1        0.0000
     18 H          10.7531   -0.0326   40.8632 H       1  UNL1        0.0000
     19 H          11.4423    0.8709   42.2207 H       1  UNL1        0.0000
     20 H           9.9480    1.4303   41.4562 H       1  UNL1        0.0000
     21 H          16.9732    2.0976   39.3076 H       1  UNL1        0.0000
     22 H          15.1949    2.1121   39.4025 H       1  UNL1        0.0000
     23 H          16.1322    1.3151   40.6563 H       1  UNL1        0.0000
     24 H          12.7345    3.0064   41.7520 H       1  UNL1        0.0000
     25 H          12.5861    3.7700   40.1703 H       1  UNL1        0.0000
     26 H          11.1699    3.6496   41.2299 H       1  UNL1        0.0000
     27 H          10.0071    2.4915   39.2022 H       1  UNL1        0.0000
     28 H          10.7073    0.9835   38.5587 H       1  UNL1        0.0000
     29 H          11.4982    2.5378   38.2522 H       1  UNL1        0.0000
     30 H          15.0488    0.9263   37.0032 H       1  UNL1        0.0000
     31 H          16.1121   -0.4458   36.7539 H       1  UNL1        0.0000
     32 H          16.8142    1.1571   37.0263 H       1  UNL1        0.0000
     33 H          12.7121   -1.1354   42.1108 H       1  UNL1        0.0000
     34 H          13.6138   -2.6325   42.3985 H       1  UNL1        0.0000
     35 H          14.3083   -1.3401   41.3987 H       1  UNL1        0.0000
     36 H          10.9992   -3.5655   39.8644 H       1  UNL1        0.0000
     37 H          10.7703   -2.4761   41.2309 H       1  UNL1        0.0000
     38 H          11.6486   -3.9945   41.4545 H       1  UNL1        0.0000
     39 H          13.3170   -3.9256   38.9194 H       1  UNL1        0.0000
     40 H          14.6547   -2.9288   39.5017 H       1  UNL1        0.0000
     41 H          14.0178   -4.2372   40.5164 H       1  UNL1        0.0000
     42 H          18.1370   -0.1917   38.8991 H       1  UNL1        0.0000
     43 H          17.1300   -1.6232   38.6345 H       1  UNL1        0.0000
     44 H          17.2042   -0.8847   40.2346 H       1  UNL1        0.0000
@<TRIPOS>BOND
     1    31     9    1
     2    30     9    1
     3    32     9    1
     4     9     6    1
     5     2     1    1
     6    29    12    1
     7    28    12    1
     8    43     7    1
     9     6     7    1
    10     6     3    1
    11     6     8    1
    12    42     7    1
    13    39    16    1
    14    12    27    1
    15    12    10    1
    16     1     3    1
    17     1     5    1
    18     1     4    1
    19     7    44    1
    20    21     8    1
    21    22     8    1
    22     5    14    1
    23    40    16    1
    24     8    23    1
    25    16    14    1
    26    16    41    1
    27    36    17    1
    28     4    10    1
    29    25    13    1
    30    10    13    1
    31    10    11    1
    32    14    17    1
    33    14    15    1
    34    17    37    1
    35    17    38    1
    36    18    11    1
    37    13    26    1
    38    13    24    1
    39    11    20    1
    40    11    19    1
    41    35    15    1
    42    15    33    1
    43    15    34    1
