@<TRIPOS>MOLECULE
2
 44 43 0 0 0
SMALL
GASTEIGER

@<TRIPOS>ATOM
      1 SI          8.8342   -0.7974   35.5607 Si      1  UNL1        0.0000
      2 O          10.2279   -0.0987   35.8638 O.3     1  UNL1        0.0000
      3 O           8.9974   -1.4426   34.0577 O.3     1  UNL1        0.0000
      4 O           7.5424    0.2126   35.6599 O.3     1  UNL1        0.0000
      5 O           8.4550   -2.0920   36.4889 O.3     1  UNL1        0.0000
      6 C           8.1424   -2.3434   33.3708 C.3     1  UNL1        0.0000
      7 C           8.4548   -3.7708   33.8293 C.3     1  UNL1        0.0000
      8 C           6.6727   -2.0245   33.6384 C.3     1  UNL1        0.0000
      9 C           8.4428   -2.1867   31.8756 C.3     1  UNL1        0.0000
     10 C           7.5156    1.6251   35.5482 C.3     1  UNL1        0.0000
     11 C           8.1602    2.2415   36.7889 C.3     1  UNL1        0.0000
     12 C           6.0378    2.0213   35.4436 C.3     1  UNL1        0.0000
     13 C           8.2874    2.0853   34.3130 C.3     1  UNL1        0.0000
     14 C           8.0393   -2.1931   37.8373 C.3     1  UNL1        0.0000
     15 C           8.3050   -3.6420   38.2628 C.3     1  UNL1        0.0000
     16 C           8.8278   -1.2283   38.7224 C.3     1  UNL1        0.0000
     17 C           6.5418   -1.8796   37.9219 C.3     1  UNL1        0.0000
     18 H           9.4833   -4.0268   33.5881 H       1  UNL1        0.0000
     19 H           7.7891   -4.4814   33.3466 H       1  UNL1        0.0000
     20 H           8.3293   -3.8210   34.9058 H       1  UNL1        0.0000
     21 H           9.2000    1.9120   36.8372 H       1  UNL1        0.0000
     22 H           8.1529    3.3233   36.7182 H       1  UNL1        0.0000
     23 H           7.6285    1.9282   37.6856 H       1  UNL1        0.0000
     24 H           6.0298   -2.6893   33.0669 H       1  UNL1        0.0000
     25 H           6.4680   -2.1378   34.6970 H       1  UNL1        0.0000
     26 H           6.4639   -0.9953   33.3628 H       1  UNL1        0.0000
     27 H           8.0010   -3.7964   39.2945 H       1  UNL1        0.0000
     28 H           7.7502   -4.3245   37.6237 H       1  UNL1        0.0000
     29 H           9.3639   -3.8608   38.1621 H       1  UNL1        0.0000
     30 H           8.5738   -1.3833   39.7684 H       1  UNL1        0.0000
     31 H           9.8954   -1.3818   38.5791 H       1  UNL1        0.0000
     32 H           8.5864   -0.2084   38.4396 H       1  UNL1        0.0000
     33 H           5.4955    1.6692   36.3173 H       1  UNL1        0.0000
     34 H           5.5928    1.5689   34.5612 H       1  UNL1        0.0000
     35 H           5.9425    3.1014   35.3771 H       1  UNL1        0.0000
     36 H           6.2075   -1.8864   38.9560 H       1  UNL1        0.0000
     37 H           6.3636   -0.9028   37.4832 H       1  UNL1        0.0000
     38 H           5.9736   -2.6174   37.3604 H       1  UNL1        0.0000
     39 H           8.1731    3.1573   34.1834 H       1  UNL1        0.0000
     40 H           7.9243    1.5617   33.4310 H       1  UNL1        0.0000
     41 H           9.3448    1.8635   34.4649 H       1  UNL1        0.0000
     42 H           7.8064   -2.8477   31.2933 H       1  UNL1        0.0000
     43 H           8.2641   -1.1599   31.5685 H       1  UNL1        0.0000
     44 H           9.4814   -2.4314   31.6749 H       1  UNL1        0.0000
@<TRIPOS>BOND
     1    42     9    1
     2    43     9    1
     3    44     9    1
     4     9     6    1
     5    24     8    1
     6    19     7    1
     7    26     8    1
     8     6     8    1
     9     6     7    1
    10     6     3    1
    11    40    13    1
    12    18     7    1
    13     8    25    1
    14     7    20    1
    15     3     1    1
    16    39    13    1
    17    13    41    1
    18    13    10    1
    19    34    12    1
    20    35    12    1
    21    12    10    1
    22    12    33    1
    23    10     4    1
    24    10    11    1
    25     1     4    1
    26     1     2    1
    27     1     5    1
    28     5    14    1
    29    22    11    1
    30    11    21    1
    31    11    23    1
    32    38    17    1
    33    37    17    1
    34    28    15    1
    35    14    17    1
    36    14    15    1
    37    14    16    1
    38    17    36    1
    39    29    15    1
    40    15    27    1
    41    32    16    1
    42    31    16    1
    43    16    30    1
