@<TRIPOS>MOLECULE
1
 18 18 0 0 0
SMALL
GASTEIGER

@<TRIPOS>ATOM
      1 O           4.1509    8.1468    7.9139 O.3     1  UNL1       -0.2873
      2 C           3.6572    8.0816    9.1160 C.ar    1  UNL1        0.1847
      3 C           3.8701    8.2710   11.5244 C.ar    1  UNL1       -0.0552
      4 C           2.5401    7.9311   11.6962 C.ar    1  UNL1       -0.0610
      5 C           1.7674    7.6603   10.5810 C.ar    1  UNL1       -0.0552
      6 C           2.2978    7.7269    9.3066 C.ar    1  UNL1       -0.0035
      7 C           1.4289    7.4156    8.1173 C.3     1  UNL1       -0.0361
      8 C           4.4421    8.3503   10.2672 C.ar    1  UNL1       -0.0035
      9 C           5.8952    8.7198   10.1369 C.3     1  UNL1       -0.0361
     10 H           0.5273    8.0299    8.1254 H       1  UNL1        0.0279
     11 H           1.1157    6.3697    8.1334 H       1  UNL1        0.0279
     12 H           1.9685    7.5994    7.1888 H       1  UNL1        0.0279
     13 H           2.1123    7.8760   12.6861 H       1  UNL1        0.0618
     14 H           0.7262    7.3893   10.6977 H       1  UNL1        0.0621
     15 H           6.1890    8.7687    9.0818 H       1  UNL1        0.0279
     16 H           6.5227    7.9839   10.6447 H       1  UNL1        0.0279
     17 H           6.0866    9.6885   10.6031 H       1  UNL1        0.0279
     18 H           4.4869    8.4815   12.3888 H       1  UNL1        0.0621
@<TRIPOS>BOND
     1    12     7    1
     2     1     2    1
     3     7    10    1
     4     7    11    1
     5     7     6    1
     6    15     9    1
     7     2     6   ar
     8     2     8   ar
     9     6     5   ar
    10     9     8    1
    11     9    17    1
    12     9    16    1
    13     8     3   ar
    14     5    14    1
    15     5     4   ar
    16     3     4   ar
    17     3    18    1
    18     4    13    1
