@<TRIPOS>MOLECULE
1
 13 13 0 0 0
SMALL
GASTEIGER

@<TRIPOS>ATOM
      1 O           5.7776    2.6898   12.8631 O.3     1  UNL1       -0.3798
      2 C           5.2656    4.0370   12.8090 C.3     1  UNL1        0.0477
      3 H           5.0434    4.3052   11.7696 H       1  UNL1        0.0560
      4 H           6.0532    4.6925   13.1951 H       1  UNL1        0.0560
      5 C           4.0046    4.0793   13.6833 C.3     1  UNL1       -0.0274
      6 H           3.9889    4.9543   14.3287 H       1  UNL1        0.0288
      7 H           3.1133    4.0903   13.0570 H       1  UNL1        0.0288
      8 C           4.0835    2.7700   14.4667 C.3     1  UNL1       -0.0274
      9 H           3.1091    2.4003   14.7748 H       1  UNL1        0.0288
     10 H           4.7198    2.8855   15.3447 H       1  UNL1        0.0288
     11 C           4.7614    1.8632   13.4483 C.3     1  UNL1        0.0477
     12 H           5.2576    0.9894   13.8756 H       1  UNL1        0.0560
     13 H           4.0516    1.5426   12.6723 H       1  UNL1        0.0560
@<TRIPOS>BOND
     1     3     2    1
     2    13    11    1
     3     2     1    1
     4     2     4    1
     5     2     5    1
     6     1    11    1
     7     7     5    1
     8    11    12    1
     9    11     8    1
    10     5     6    1
    11     5     8    1
    12     8     9    1
    13     8    10    1
