@<TRIPOS>MOLECULE
14
 14 13 0 0 0
SMALL
GASTEIGER

@<TRIPOS>ATOM
      1 SI          2.3459    5.3779    4.0899 Si      1  UNL1        0.0000
      2 C           1.9540    6.3902    2.5071 C.3     1  UNL1        0.0000
      3 H           2.8601    6.7545    2.0355 H       1  UNL1        0.0000
      4 H           1.3630    7.2585    2.7819 H       1  UNL1        0.0000
      5 H           1.3857    5.8428    1.7625 H       1  UNL1        0.0000
      6 C           0.6259    4.9346    4.8396 C.3     1  UNL1        0.0000
      7 H           0.1205    4.1501    4.2839 H       1  UNL1        0.0000
      8 H          -0.0157    5.8092    4.8158 H       1  UNL1        0.0000
      9 H           0.6890    4.6175    5.8766 H       1  UNL1        0.0000
     10 C           3.1689    6.6599    5.2587 C.3     1  UNL1        0.0000
     11 H           2.8884    6.5244    6.2981 H       1  UNL1        0.0000
     12 H           2.8656    7.6619    4.9741 H       1  UNL1        0.0000
     13 H           4.2508    6.6222    5.1929 H       1  UNL1        0.0000
     14 O           3.2242    4.0465    3.8674 O.3     1  UNL1        0.0000
@<TRIPOS>BOND
     1     5     2    1
     2     3     2    1
     3     2     4    1
     4     2     1    1
     5    14     1    1
     6     1     6    1
     7     1    10    1
     8     7     6    1
     9     8     6    1
    10     6     9    1
    11    12    10    1
    12    13    10    1
    13    10    11    1
