@<TRIPOS>MOLECULE
1
 13 13 0 0 0
SMALL
GASTEIGER

@<TRIPOS>ATOM
      1 O           6.7347   14.7201   13.6579 O.3     1  UNL1       -0.3798
      2 C           6.4068   13.3652   13.3722 C.3     1  UNL1        0.0477
      3 H           7.1852   12.7321   13.8005 H       1  UNL1        0.0560
      4 H           6.3847   13.2172   12.2831 H       1  UNL1        0.0560
      5 C           5.0088   13.1156   13.9714 C.3     1  UNL1       -0.0274
      6 H           4.3703   12.5996   13.2565 H       1  UNL1        0.0288
      7 H           5.0687   12.5110   14.8739 H       1  UNL1        0.0288
      8 C           5.5013   15.4208   13.5573 C.3     1  UNL1        0.0477
      9 H           5.2260   15.5414   12.4992 H       1  UNL1        0.0560
     10 H           5.6284   16.4039   14.0087 H       1  UNL1        0.0560
     11 C           4.4924   14.5294   14.2824 C.3     1  UNL1       -0.0274
     12 H           3.4760   14.6941   13.9335 H       1  UNL1        0.0288
     13 H           4.5362   14.7250   15.3529 H       1  UNL1        0.0288
@<TRIPOS>BOND
     1     4     2    1
     2     9     8    1
     3     6     5    1
     4     2     1    1
     5     2     3    1
     6     2     5    1
     7     8     1    1
     8     8    10    1
     9     8    11    1
    10    12    11    1
    11     5    11    1
    12     5     7    1
    13    11    13    1
