@<TRIPOS>MOLECULE
1
 3 2 0 0 0
SMALL
GASTEIGER

@<TRIPOS>ATOM
      1 O           1.1248    4.8653    9.5934 O.3     1  HOH1       -0.4105
      2 H           0.2988    4.9362    9.0774 H       0  HOH0        0.2052
      3 H           1.5574    4.0384    9.3259 H       0  HOH0        0.2052
@<TRIPOS>BOND
     1     2     1    1
     2     3     1    1
