@<TRIPOS>MOLECULE
1
 30 30 0 0 0
SMALL
GASTEIGER

@<TRIPOS>ATOM
      1 O           6.1424   14.5074   11.4267 O.3     1  UNL1       -0.2873
      2 C           5.0281   14.0411   11.9458 C.ar    1  UNL1        0.1858
      3 C           4.2578   13.0842   11.2403 C.ar    1  UNL1        0.0021
      4 C           3.0602   12.6454   11.7814 C.ar    1  UNL1       -0.0547
      5 C           2.6151   13.0985   13.0084 C.ar    1  UNL1       -0.0610
      6 C           3.3857   13.9997   13.7189 C.ar    1  UNL1       -0.0547
      7 C           4.5791   14.4859   13.2129 C.ar    1  UNL1        0.0021
      8 C           4.7467   12.4969    9.9338 C.3     1  UNL1       -0.0179
      9 C           3.8246   12.8288    8.7576 C.3     1  UNL1       -0.0585
     10 C           4.8671   10.9723   10.0474 C.3     1  UNL1       -0.0585
     11 C           5.4056   15.4618   14.0194 C.3     1  UNL1       -0.0179
     12 C           6.0377   14.7699   15.2312 C.3     1  UNL1       -0.0585
     13 C           4.5824   16.6539   14.5158 C.3     1  UNL1       -0.0585
     14 H           2.4660   11.9266   11.2368 H       1  UNL1        0.0622
     15 H           1.6797   12.7423   13.4134 H       1  UNL1        0.0618
     16 H           3.0478   14.3351   14.6875 H       1  UNL1        0.0622
     17 H           5.7423   12.9163    9.7205 H       1  UNL1        0.0345
     18 H           4.2127   12.3742    7.8477 H       1  UNL1        0.0235
     19 H           3.7510   13.8997    8.6029 H       1  UNL1        0.0235
     20 H           2.8239   12.4399    8.9350 H       1  UNL1        0.0235
     21 H           5.4368   10.5757    9.2088 H       1  UNL1        0.0235
     22 H           5.3579   10.6881   10.9736 H       1  UNL1        0.0235
     23 H           3.8825   10.5096   10.0346 H       1  UNL1        0.0235
     24 H           6.2120   15.8340   13.3752 H       1  UNL1        0.0345
     25 H           6.6573   15.4809   15.7736 H       1  UNL1        0.0235
     26 H           5.2651   14.3975   15.9013 H       1  UNL1        0.0235
     27 H           6.6589   13.9325   14.9285 H       1  UNL1        0.0235
     28 H           5.2482   17.4042   14.9357 H       1  UNL1        0.0235
     29 H           3.8849   16.3463   15.2915 H       1  UNL1        0.0235
     30 H           4.0148   17.1105   13.7101 H       1  UNL1        0.0235
@<TRIPOS>BOND
     1    18     9    1
     2    19     9    1
     3     9    20    1
     4     9     8    1
     5    21    10    1
     6    17     8    1
     7     8    10    1
     8     8     3    1
     9    23    10    1
    10    10    22    1
    11    14     4    1
    12     3     4   ar
    13     3     2   ar
    14     1     2    1
    15     4     5   ar
    16     2     7   ar
    17     5    15    1
    18     5     6   ar
    19     7     6   ar
    20     7    11    1
    21    24    11    1
    22    30    13    1
    23     6    16    1
    24    11    13    1
    25    11    12    1
    26    13    28    1
    27    13    29    1
    28    27    12    1
    29    12    25    1
    30    12    26    1
