@<TRIPOS>MOLECULE
10
 14 13 0 0 0
SMALL
GASTEIGER

@<TRIPOS>ATOM
      1 F           9.6154    3.7571   15.7490 F       1  UNL1       -0.1668
      2 F           8.6582    1.8547   15.4568 F       1  UNL1       -0.1668
      3 F           9.5334    2.8862   13.7799 F       1  UNL1       -0.1668
      4 F           7.7988    5.9430   15.6132 F       1  UNL1       -0.1668
      5 F           8.9550    5.5216   13.8444 F       1  UNL1       -0.1668
      6 F           6.8501    5.8748   13.6766 F       1  UNL1       -0.1668
      7 F           6.9957    3.7139   16.9246 F       1  UNL1       -0.1668
      8 F           5.9527    2.3135   15.6691 F       1  UNL1       -0.1668
      9 F           5.4464    4.3955   15.5880 F       1  UNL1       -0.1668
     10 O           7.0312    3.2949   13.4152 O.3     1  UNL1       -0.1988
     11 C           7.4881    3.7539   14.5516 C.3     1  UNL1        0.3831
     12 C           8.8311    3.0560   14.9198 C.3     1  UNL1        0.4389
     13 C           7.7754    5.2888   14.4552 C.3     1  UNL1        0.4389
     14 C           6.4711    3.5372   15.7079 C.3     1  UNL1        0.4389
@<TRIPOS>BOND
     1    10    11    1
     2     6    13    1
     3     3    12    1
     4     5    13    1
     5    13    11    1
     6    13     4    1
     7    11    12    1
     8    11    14    1
     9    12     2    1
    10    12     1    1
    11     9    14    1
    12     8    14    1
    13    14     7    1
