@<TRIPOS>MOLECULE
1
 13 13 0 0 0
SMALL
GASTEIGER

@<TRIPOS>ATOM
      1 O           2.5402    5.0435    4.8564 O.3     1  UNL1       -0.3798
      2 C           2.3942    5.7527    3.6278 C.3     1  UNL1        0.0477
      3 H           2.6346    6.8120    3.7937 H       1  UNL1        0.0560
      4 H           1.3536    5.6657    3.3111 H       1  UNL1        0.0560
      5 C           3.3923    5.1228    2.6381 C.3     1  UNL1       -0.0274
      6 H           2.8844    4.4781    1.9233 H       1  UNL1        0.0288
      7 H           3.9224    5.8941    2.0828 H       1  UNL1        0.0288
      8 C           4.3386    4.3148    3.5410 C.3     1  UNL1       -0.0274
      9 H           5.3873    4.5192    3.3406 H       1  UNL1        0.0288
     10 H           4.1646    3.2456    3.4327 H       1  UNL1        0.0288
     11 C           3.9329    4.7611    4.9470 C.3     1  UNL1        0.0477
     12 H           4.4762    5.6755    5.2265 H       1  UNL1        0.0560
     13 H           4.0803    3.9956    5.7066 H       1  UNL1        0.0560
@<TRIPOS>BOND
     1     6     5    1
     2     7     5    1
     3     5     8    1
     4     5     2    1
     5     4     2    1
     6     9     8    1
     7    10     8    1
     8     8    11    1
     9     2     3    1
    10     2     1    1
    11     1    11    1
    12    11    12    1
    13    11    13    1
