@<TRIPOS>MOLECULE
1
 9 8 0 0 0
SMALL
GASTEIGER

@<TRIPOS>ATOM
      1 O           5.6858   12.5104    2.7693 O.3     1  UNL1       -0.3953
      2 H           4.9477   12.2816    2.1920 H       1  UNL1        0.2094
      3 C           5.8204   11.5109    3.7604 C.3     1  UNL1        0.0414
      4 H           6.5781   11.8796    4.4550 H       1  UNL1        0.0554
      5 H           6.1941   10.5884    3.2922 H       1  UNL1        0.0554
      6 C           4.5171   11.2329    4.4956 C.3     1  UNL1       -0.0418
      7 H           4.6811   10.4935    5.2748 H       1  UNL1        0.0252
      8 H           3.7619   10.8528    3.8077 H       1  UNL1        0.0252
      9 H           4.1452   12.1462    4.9540 H       1  UNL1        0.0252
@<TRIPOS>BOND
     1     2     1    1
     2     1     3    1
     3     5     3    1
     4     3     4    1
     5     3     6    1
     6     8     6    1
     7     6     9    1
     8     6     7    1
