@<TRIPOS>MOLECULE
1
 13 13 0 0 0
SMALL
GASTEIGER

@<TRIPOS>ATOM
      1 O           1.8787    7.3533   -0.0342 O.3     1  UNL1       -0.3798
      2 C           3.1456    7.4950    0.6092 C.3     1  UNL1        0.0477
      3 C           3.1759    8.8963    1.2513 C.3     1  UNL1       -0.0274
      4 C           1.8634    9.5389    0.7850 C.3     1  UNL1       -0.0274
      5 C           1.4842    8.6686   -0.4104 C.3     1  UNL1        0.0477
      6 H           3.2306    6.6791    1.3276 H       1  UNL1        0.0560
      7 H           3.9414    7.4002   -0.1421 H       1  UNL1        0.0560
      8 H           3.2292    8.8425    2.3357 H       1  UNL1        0.0288
      9 H           4.0371    9.4599    0.8941 H       1  UNL1        0.0288
     10 H           1.0945    9.4488    1.5519 H       1  UNL1        0.0288
     11 H           1.9762   10.5863    0.5168 H       1  UNL1        0.0288
     12 H           0.4143    8.6592   -0.6182 H       1  UNL1        0.0560
     13 H           2.0384    8.9775   -1.3092 H       1  UNL1        0.0560
@<TRIPOS>BOND
     1    13     5    1
     2    12     5    1
     3     5     1    1
     4     5     4    1
     5     7     2    1
     6     1     2    1
     7    11     4    1
     8     2     3    1
     9     2     6    1
    10     4     3    1
    11     4    10    1
    12     9     3    1
    13     3     8    1
