@<TRIPOS>MOLECULE
1
 13 13 0 0 0
SMALL
GASTEIGER

@<TRIPOS>ATOM
      1 O           4.5202    5.2090    5.1345 O.3     1  UNL1       -0.3798
      2 C           5.2409    6.4248    5.3428 C.3     1  UNL1        0.0477
      3 H           4.9576    7.1509    4.5690 H       1  UNL1        0.0560
      4 H           4.9681    6.8117    6.3271 H       1  UNL1        0.0560
      5 C           6.7104    6.0263    5.1855 C.3     1  UNL1       -0.0274
      6 H           7.1014    5.6479    6.1294 H       1  UNL1        0.0288
      7 H           7.3258    6.8632    4.8642 H       1  UNL1        0.0288
      8 C           6.6485    4.8990    4.1402 C.3     1  UNL1       -0.0274
      9 H           7.1684    4.0092    4.4888 H       1  UNL1        0.0288
     10 H           7.0827    5.2012    3.1894 H       1  UNL1        0.0288
     11 C           5.1425    4.6217    3.9922 C.3     1  UNL1        0.0477
     12 H           4.7496    5.0983    3.0845 H       1  UNL1        0.0560
     13 H           4.8990    3.5594    3.9756 H       1  UNL1        0.0560
@<TRIPOS>BOND
     1    12    11    1
     2    10     8    1
     3    13    11    1
     4    11     8    1
     5    11     1    1
     6     8     9    1
     7     8     5    1
     8     3     2    1
     9     7     5    1
    10     1     2    1
    11     5     2    1
    12     5     6    1
    13     2     4    1
