@<TRIPOS>MOLECULE
2
 14 13 0 0 0
SMALL
GASTEIGER

@<TRIPOS>ATOM
      1 SI          7.3823   10.5444    2.8284 Si      1  UNL1        0.0000
      2 O           8.6367   11.3643    2.2319 O.3     1  UNL1        0.0000
      3 C           7.7143   10.3091    4.7059 C.3     1  UNL1        0.0000
      4 H           8.7204    9.9060    4.8403 H       1  UNL1        0.0000
      5 H           7.0104    9.6334    5.1807 H       1  UNL1        0.0000
      6 H           7.6656   11.2599    5.2314 H       1  UNL1        0.0000
      7 C           5.7867   11.5509    2.5303 C.3     1  UNL1        0.0000
      8 H           5.8348   12.5270    3.0015 H       1  UNL1        0.0000
      9 H           4.9302   11.0270    2.9372 H       1  UNL1        0.0000
     10 H           5.6091   11.7016    1.4709 H       1  UNL1        0.0000
     11 C           7.2924    8.8348    1.9654 C.3     1  UNL1        0.0000
     12 H           6.9710    8.9336    0.9320 H       1  UNL1        0.0000
     13 H           6.6104    8.1500    2.4590 H       1  UNL1        0.0000
     14 H           8.2834    8.3817    1.9570 H       1  UNL1        0.0000
@<TRIPOS>BOND
     1    12    11    1
     2    10     7    1
     3    14    11    1
     4    11    13    1
     5    11     1    1
     6     2     1    1
     7     7     1    1
     8     7     9    1
     9     7     8    1
    10     1     3    1
    11     3     4    1
    12     3     5    1
    13     3     6    1
