@<TRIPOS>MOLECULE
2
 35 37 0 0 0
SMALL
GASTEIGER

@<TRIPOS>ATOM
      1 SI          8.8629    3.3249    1.6581 Si      1  UNL1        0.0000
      2 O          10.4586    3.6212    1.6949 O.3     1  UNL1        0.0000
      3 C           8.0809    4.7912    2.5825 C.ar    1  UNL1        0.0000
      4 C           7.4556    4.6616    3.8177 C.ar    1  UNL1        0.0000
      5 C           6.9368    5.7645    4.4737 C.ar    1  UNL1        0.0000
      6 C           7.0402    7.0223    3.9043 C.ar    1  UNL1        0.0000
      7 C           7.6648    7.1709    2.6770 C.ar    1  UNL1        0.0000
      8 C           8.1770    6.0644    2.0246 C.ar    1  UNL1        0.0000
      9 C           8.6449    1.6329    2.4882 C.ar    1  UNL1        0.0000
     10 C           7.4210    1.1737    2.9663 C.ar    1  UNL1        0.0000
     11 C           7.3233   -0.0472    3.6096 C.ar    1  UNL1        0.0000
     12 C           8.4521   -0.8312    3.7812 C.ar    1  UNL1        0.0000
     13 C           9.6737   -0.3975    3.2927 C.ar    1  UNL1        0.0000
     14 C           9.7690    0.8231    2.6484 C.ar    1  UNL1        0.0000
     15 C           8.3950    3.3663   -0.1835 C.ar    1  UNL1        0.0000
     16 C           9.3610    3.0347   -1.1314 C.ar    1  UNL1        0.0000
     17 C           9.0765    3.1030   -2.4848 C.ar    1  UNL1        0.0000
     18 C           7.8198    3.5015   -2.9106 C.ar    1  UNL1        0.0000
     19 C           6.8485    3.8281   -1.9790 C.ar    1  UNL1        0.0000
     20 C           7.1361    3.7608   -0.6274 C.ar    1  UNL1        0.0000
     21 H           7.3740    3.6837    4.2698 H       1  UNL1        0.0000
     22 H           6.4524    5.6437    5.4323 H       1  UNL1        0.0000
     23 H           6.6390    7.8845    4.4172 H       1  UNL1        0.0000
     24 H           7.7562    8.1504    2.2300 H       1  UNL1        0.0000
     25 H           8.6651    6.1868    1.0666 H       1  UNL1        0.0000
     26 H           6.5375    1.7814    2.8311 H       1  UNL1        0.0000
     27 H           6.3667   -0.3876    3.9799 H       1  UNL1        0.0000
     28 H           8.3776   -1.7817    4.2893 H       1  UNL1        0.0000
     29 H          10.5549   -1.0095    3.4178 H       1  UNL1        0.0000
     30 H          10.7282    1.1629    2.2633 H       1  UNL1        0.0000
     31 H          10.3500    2.7240   -0.7997 H       1  UNL1        0.0000
     32 H           9.8374    2.8470   -3.2081 H       1  UNL1        0.0000
     33 H           7.5972    3.5576   -3.9665 H       1  UNL1        0.0000
     34 H           5.8672    4.1388   -2.3076 H       1  UNL1        0.0000
     35 H           6.3786    4.0236    0.0974 H       1  UNL1        0.0000
@<TRIPOS>BOND
     1    33    18    1
     2    32    17    1
     3    18    17   ar
     4    18    19   ar
     5    17    16   ar
     6    34    19    1
     7    19    20   ar
     8    16    31    1
     9    16    15   ar
    10    20    15   ar
    11    20    35    1
    12    15     1    1
    13    25     8    1
    14     1     2    1
    15     1     9    1
    16     1     3    1
    17     8     3   ar
    18     8     7   ar
    19    24     7    1
    20    30    14    1
    21     9    14   ar
    22     9    10   ar
    23     3     4   ar
    24    14    13   ar
    25     7     6   ar
    26    26    10    1
    27    10    11   ar
    28    13    29    1
    29    13    12   ar
    30    11    12   ar
    31    11    27    1
    32    12    28    1
    33     4    21    1
    34     4     5   ar
    35     6    23    1
    36     6     5   ar
    37     5    22    1
