@<TRIPOS>MOLECULE
2
 35 37 0 0 0
SMALL
GASTEIGER

@<TRIPOS>ATOM
      1 SI         12.9463    6.1379   -0.1651 Si      1  UNL1        0.0000
      2 O          12.3018    4.6841    0.1144 O.3     1  UNL1        0.0000
      3 C          12.5184    6.6058   -1.9485 C.ar    1  UNL1        0.0000
      4 C          13.2652    7.5328   -2.6665 C.ar    1  UNL1        0.0000
      5 C          12.9096    7.8866   -3.9556 C.ar    1  UNL1        0.0000
      6 C          11.7948    7.3166   -4.5479 C.ar    1  UNL1        0.0000
      7 C          11.0410    6.3905   -3.8464 C.ar    1  UNL1        0.0000
      8 C          11.4010    6.0406   -2.5579 C.ar    1  UNL1        0.0000
      9 C          12.1793    7.3723    1.0666 C.ar    1  UNL1        0.0000
     10 C          12.2382    8.7480    0.8615 C.ar    1  UNL1        0.0000
     11 C          11.7035    9.6298    1.7834 C.ar    1  UNL1        0.0000
     12 C          11.0960    9.1485    2.9315 C.ar    1  UNL1        0.0000
     13 C          11.0206    7.7831    3.1492 C.ar    1  UNL1        0.0000
     14 C          11.5580    6.9070    2.2233 C.ar    1  UNL1        0.0000
     15 C          14.7918    5.9147    0.2379 C.ar    1  UNL1        0.0000
     16 C          15.2924    4.6265    0.4209 C.ar    1  UNL1        0.0000
     17 C          16.6004    4.4245    0.8250 C.ar    1  UNL1        0.0000
     18 C          17.4306    5.5103    1.0496 C.ar    1  UNL1        0.0000
     19 C          16.9517    6.7960    0.8606 C.ar    1  UNL1        0.0000
     20 C          15.6428    6.9939    0.4601 C.ar    1  UNL1        0.0000
     21 H          14.1404    7.9737   -2.2112 H       1  UNL1        0.0000
     22 H          13.5027    8.6061   -4.5020 H       1  UNL1        0.0000
     23 H          11.5176    7.5912   -5.5555 H       1  UNL1        0.0000
     24 H          10.1711    5.9403   -4.3031 H       1  UNL1        0.0000
     25 H          10.8152    5.3140   -2.0102 H       1  UNL1        0.0000
     26 H          12.7021    9.1275   -0.0381 H       1  UNL1        0.0000
     27 H          11.7591   10.6948    1.6070 H       1  UNL1        0.0000
     28 H          10.6792    9.8363    3.6530 H       1  UNL1        0.0000
     29 H          10.5413    7.4007    4.0391 H       1  UNL1        0.0000
     30 H          11.4906    5.8380    2.4030 H       1  UNL1        0.0000
     31 H          14.6406    3.7721    0.2485 H       1  UNL1        0.0000
     32 H          16.9711    3.4202    0.9693 H       1  UNL1        0.0000
     33 H          18.4496    5.3546    1.3725 H       1  UNL1        0.0000
     34 H          17.5979    7.6448    1.0335 H       1  UNL1        0.0000
     35 H          15.2681    7.9997    0.3310 H       1  UNL1        0.0000
@<TRIPOS>BOND
     1    23     6    1
     2     6     5   ar
     3     6     7   ar
     4    22     5    1
     5    24     7    1
     6     5     4   ar
     7     7     8   ar
     8     4    21    1
     9     4     3   ar
    10     8    25    1
    11     8     3   ar
    12     3     1    1
    13     1     2    1
    14     1    15    1
    15     1     9    1
    16    26    10    1
    17    15    16   ar
    18    15    20   ar
    19    31    16    1
    20    35    20    1
    21    16    17   ar
    22    20    19   ar
    23    17    32    1
    24    17    18   ar
    25    19    34    1
    26    19    18   ar
    27    10     9   ar
    28    10    11   ar
    29    18    33    1
    30     9    14   ar
    31    27    11    1
    32    11    12   ar
    33    14    30    1
    34    14    13   ar
    35    12    13   ar
    36    12    28    1
    37    13    29    1
