@<TRIPOS>MOLECULE
2
 35 37 0 0 0
SMALL
GASTEIGER

@<TRIPOS>ATOM
      1 SI         -3.3502    0.2765    3.5766 Si      1  UNL1        0.0000
      2 O          -2.8613    0.2540    5.1101 O.3     1  UNL1        0.0000
      3 C          -5.1131    0.9965    3.5835 C.ar    1  UNL1        0.0000
      4 C          -5.5809    1.6450    4.7242 C.ar    1  UNL1        0.0000
      5 C          -6.8482    2.2006    4.7576 C.ar    1  UNL1        0.0000
      6 C          -7.6705    2.1198    3.6455 C.ar    1  UNL1        0.0000
      7 C          -7.2182    1.4845    2.5008 C.ar    1  UNL1        0.0000
      8 C          -5.9507    0.9313    2.4727 C.ar    1  UNL1        0.0000
      9 C          -2.2133    1.4676    2.6220 C.ar    1  UNL1        0.0000
     10 C          -1.7055    2.5811    3.2893 C.ar    1  UNL1        0.0000
     11 C          -0.8690    3.4761    2.6465 C.ar    1  UNL1        0.0000
     12 C          -0.5285    3.2761    1.3182 C.ar    1  UNL1        0.0000
     13 C          -1.0338    2.1812    0.6380 C.ar    1  UNL1        0.0000
     14 C          -1.8708    1.2896    1.2855 C.ar    1  UNL1        0.0000
     15 C          -3.3173   -1.4568    2.8016 C.ar    1  UNL1        0.0000
     16 C          -2.1403   -1.9746    2.2703 C.ar    1  UNL1        0.0000
     17 C          -2.1082   -3.2277    1.6857 C.ar    1  UNL1        0.0000
     18 C          -3.2627   -3.9874    1.6111 C.ar    1  UNL1        0.0000
     19 C          -4.4440   -3.4869    2.1302 C.ar    1  UNL1        0.0000
     20 C          -4.4669   -2.2360    2.7200 C.ar    1  UNL1        0.0000
     21 H          -4.9330    1.7149    5.6020 H       1  UNL1        0.0000
     22 H          -7.1948    2.6984    5.6516 H       1  UNL1        0.0000
     23 H          -8.6603    2.5527    3.6697 H       1  UNL1        0.0000
     24 H          -7.8553    1.4221    1.6299 H       1  UNL1        0.0000
     25 H          -5.5991    0.4374    1.5779 H       1  UNL1        0.0000
     26 H          -1.9728    2.7383    4.3289 H       1  UNL1        0.0000
     27 H          -0.4822    4.3329    3.1804 H       1  UNL1        0.0000
     28 H           0.1264    3.9730    0.8141 H       1  UNL1        0.0000
     29 H          -0.7751    2.0237   -0.3996 H       1  UNL1        0.0000
     30 H          -2.2656    0.4388    0.7488 H       1  UNL1        0.0000
     31 H          -1.2369   -1.3847    2.3129 H       1  UNL1        0.0000
     32 H          -1.1804   -3.6097    1.2837 H       1  UNL1        0.0000
     33 H          -3.2428   -4.9643    1.1495 H       1  UNL1        0.0000
     34 H          -5.3500   -4.0735    2.0739 H       1  UNL1        0.0000
     35 H          -5.3933   -1.8530    3.1232 H       1  UNL1        0.0000
@<TRIPOS>BOND
     1    29    13    1
     2    13    14   ar
     3    13    12   ar
     4    30    14    1
     5    28    12    1
     6    33    18    1
     7    32    17    1
     8    14     9   ar
     9    12    11   ar
    10    25     8    1
    11    18    17   ar
    12    18    19   ar
    13    24     7    1
    14    17    16   ar
    15    34    19    1
    16    19    20   ar
    17    16    31    1
    18    16    15   ar
    19     8     7   ar
    20     8     3   ar
    21     7     6   ar
    22     9    10   ar
    23     9     1    1
    24    11    27    1
    25    11    10   ar
    26    20    15   ar
    27    20    35    1
    28    15     1    1
    29    10    26    1
    30     1     3    1
    31     1     2    1
    32     3     4   ar
    33     6    23    1
    34     6     5   ar
    35     4     5   ar
    36     4    21    1
    37     5    22    1
