@<TRIPOS>MOLECULE
2
 35 37 0 0 0
SMALL
GASTEIGER

@<TRIPOS>ATOM
      1 SI         13.8580    3.2892    3.8608 Si      1  UNL1        0.0000
      2 O          12.9527    3.6405    2.5587 O.3     1  UNL1        0.0000
      3 C          15.2950    2.1952    3.2789 C.ar    1  UNL1        0.0000
      4 C          16.5400    2.2064    3.9004 C.ar    1  UNL1        0.0000
      5 C          17.5721    1.4088    3.4386 C.ar    1  UNL1        0.0000
      6 C          17.3733    0.5864    2.3420 C.ar    1  UNL1        0.0000
      7 C          16.1397    0.5655    1.7108 C.ar    1  UNL1        0.0000
      8 C          15.1080    1.3614    2.1770 C.ar    1  UNL1        0.0000
      9 C          14.4849    4.9197    4.5980 C.ar    1  UNL1        0.0000
     10 C          14.9390    4.9856    5.9116 C.ar    1  UNL1        0.0000
     11 C          15.4256    6.1687    6.4372 C.ar    1  UNL1        0.0000
     12 C          15.4630    7.3117    5.6551 C.ar    1  UNL1        0.0000
     13 C          15.0114    7.2641    4.3472 C.ar    1  UNL1        0.0000
     14 C          14.5307    6.0766    3.8269 C.ar    1  UNL1        0.0000
     15 C          12.6841    2.3558    5.0316 C.ar    1  UNL1        0.0000
     16 C          11.3109    2.5735    4.9374 C.ar    1  UNL1        0.0000
     17 C          10.4234    1.8847    5.7444 C.ar    1  UNL1        0.0000
     18 C          10.8966    0.9664    6.6663 C.ar    1  UNL1        0.0000
     19 C          12.2590    0.7436    6.7785 C.ar    1  UNL1        0.0000
     20 C          13.1424    1.4322    5.9666 C.ar    1  UNL1        0.0000
     21 H          16.7008    2.8557    4.7494 H       1  UNL1        0.0000
     22 H          18.5340    1.4301    3.9309 H       1  UNL1        0.0000
     23 H          18.1795   -0.0344    1.9781 H       1  UNL1        0.0000
     24 H          15.9827   -0.0719    0.8527 H       1  UNL1        0.0000
     25 H          14.1428    1.3521    1.6802 H       1  UNL1        0.0000
     26 H          14.9018    4.0985    6.5276 H       1  UNL1        0.0000
     27 H          15.7751    6.2025    7.4593 H       1  UNL1        0.0000
     28 H          15.8419    8.2362    6.0662 H       1  UNL1        0.0000
     29 H          15.0325    8.1505    3.7298 H       1  UNL1        0.0000
     30 H          14.1836    6.0411    2.8045 H       1  UNL1        0.0000
     31 H          10.9361    3.2882    4.2138 H       1  UNL1        0.0000
     32 H           9.3612    2.0587    5.6502 H       1  UNL1        0.0000
     33 H          10.2051    0.4230    7.2938 H       1  UNL1        0.0000
     34 H          12.6318    0.0273    7.4967 H       1  UNL1        0.0000
     35 H          14.2041    1.2470    6.0493 H       1  UNL1        0.0000
@<TRIPOS>BOND
     1    24     7    1
     2    25     8    1
     3     7     8   ar
     4     7     6   ar
     5    23     6    1
     6     8     3   ar
     7     6     5   ar
     8     2     1    1
     9    30    14    1
    10     3     1    1
    11     3     4   ar
    12     5     4   ar
    13     5    22    1
    14    29    13    1
    15    14    13   ar
    16    14     9   ar
    17     1     9    1
    18     1    15    1
    19     4    21    1
    20    31    16    1
    21    13    12   ar
    22     9    10   ar
    23    16    15   ar
    24    16    17   ar
    25    15    20   ar
    26    32    17    1
    27    12    28    1
    28    12    11   ar
    29    17    18   ar
    30    10    11   ar
    31    10    26    1
    32    20    35    1
    33    20    19   ar
    34    11    27    1
    35    18    19   ar
    36    18    33    1
    37    19    34    1
