@<TRIPOS>MOLECULE
2
 35 37 0 0 0
SMALL
GASTEIGER

@<TRIPOS>ATOM
      1 SI         -0.7450   -1.9075    6.1184 Si      1  UNL1        0.0000
      2 O          -1.2676   -0.6146    6.9086 O.3     1  UNL1        0.0000
      3 C          -2.2031   -3.0482    5.6881 C.ar    1  UNL1        0.0000
      4 C          -2.0204   -4.2792    5.0659 C.ar    1  UNL1        0.0000
      5 C          -3.0874   -5.1239    4.8232 C.ar    1  UNL1        0.0000
      6 C          -4.3652   -4.7518    5.2046 C.ar    1  UNL1        0.0000
      7 C          -4.5674   -3.5305    5.8244 C.ar    1  UNL1        0.0000
      8 C          -3.4947   -2.6901    6.0639 C.ar    1  UNL1        0.0000
      9 C           0.3890   -2.8807    7.3054 C.ar    1  UNL1        0.0000
     10 C          -0.1590   -3.5890    8.3698 C.ar    1  UNL1        0.0000
     11 C           0.6426   -4.2640    9.2725 C.ar    1  UNL1        0.0000
     12 C           2.0187   -4.2497    9.1219 C.ar    1  UNL1        0.0000
     13 C           2.5826   -3.5661    8.0580 C.ar    1  UNL1        0.0000
     14 C           1.7725   -2.8915    7.1616 C.ar    1  UNL1        0.0000
     15 C           0.2884   -1.3028    4.6432 C.ar    1  UNL1        0.0000
     16 C           0.9789   -2.1676    3.7993 C.ar    1  UNL1        0.0000
     17 C           1.7315   -1.6856    2.7435 C.ar    1  UNL1        0.0000
     18 C           1.8131   -0.3211    2.5170 C.ar    1  UNL1        0.0000
     19 C           1.1419    0.5555    3.3526 C.ar    1  UNL1        0.0000
     20 C           0.3865    0.0640    4.4019 C.ar    1  UNL1        0.0000
     21 H          -1.0247   -4.5808    4.7749 H       1  UNL1        0.0000
     22 H          -2.9235   -6.0758    4.3385 H       1  UNL1        0.0000
     23 H          -5.2001   -5.4123    5.0198 H       1  UNL1        0.0000
     24 H          -5.5620   -3.2335    6.1248 H       1  UNL1        0.0000
     25 H          -3.6624   -1.7334    6.5557 H       1  UNL1        0.0000
     26 H          -1.2330   -3.6093    8.4871 H       1  UNL1        0.0000
     27 H           0.1949   -4.8048   10.0940 H       1  UNL1        0.0000
     28 H           2.6489   -4.7741    9.8258 H       1  UNL1        0.0000
     29 H           3.6560   -3.5601    7.9280 H       1  UNL1        0.0000
     30 H           2.2171   -2.3615    6.3310 H       1  UNL1        0.0000
     31 H           0.9211   -3.2321    3.9741 H       1  UNL1        0.0000
     32 H           2.2560   -2.3729    2.0947 H       1  UNL1        0.0000
     33 H           2.3978    0.0578    1.6913 H       1  UNL1        0.0000
     34 H           1.2008    1.6203    3.1822 H       1  UNL1        0.0000
     35 H          -0.1459    0.7559    5.0518 H       1  UNL1        0.0000
@<TRIPOS>BOND
     1    33    18    1
     2    32    17    1
     3    18    17   ar
     4    18    19   ar
     5    17    16   ar
     6    34    19    1
     7    19    20   ar
     8    16    31    1
     9    16    15   ar
    10    22     5    1
    11    20    15   ar
    12    20    35    1
    13    15     1    1
    14    21     4    1
    15     5     4   ar
    16     5     6   ar
    17    23     6    1
    18     4     3   ar
    19     6     7   ar
    20     3     8   ar
    21     3     1    1
    22     7     8   ar
    23     7    24    1
    24     8    25    1
    25     1     2    1
    26     1     9    1
    27    30    14    1
    28    14     9   ar
    29    14    13   ar
    30     9    10   ar
    31    29    13    1
    32    13    12   ar
    33    10    26    1
    34    10    11   ar
    35    12    11   ar
    36    12    28    1
    37    11    27    1
