@<TRIPOS>MOLECULE
1
 13 13 0 0 0
SMALL
GASTEIGER

@<TRIPOS>ATOM
      1 O          -0.6099    3.6075    6.3307 O.3     1  UNL1       -0.3798
      2 C          -0.8238    4.1999    7.6237 C.3     1  UNL1        0.0477
      3 H           0.1119    4.6524    7.9559 H       1  UNL1        0.0560
      4 H          -1.5846    4.9838    7.5253 H       1  UNL1        0.0560
      5 C          -1.3063    3.0807    8.5410 C.3     1  UNL1       -0.0274
      6 H          -1.9295    3.4531    9.3499 H       1  UNL1        0.0288
      7 H          -0.4569    2.5438    8.9645 H       1  UNL1        0.0288
      8 C          -2.0609    2.1875    7.5608 C.3     1  UNL1       -0.0274
      9 H          -2.1685    1.1629    7.9074 H       1  UNL1        0.0288
     10 H          -3.0495    2.5996    7.3563 H       1  UNL1        0.0288
     11 C          -1.1766    2.2875    6.3224 C.3     1  UNL1        0.0477
     12 H          -0.3603    1.5537    6.3654 H       1  UNL1        0.0560
     13 H          -1.7294    2.1538    5.3896 H       1  UNL1        0.0560
@<TRIPOS>BOND
     1    13    11    1
     2    11     1    1
     3    11    12    1
     4    11     8    1
     5     1     2    1
     6    10     8    1
     7     4     2    1
     8     8     9    1
     9     8     5    1
    10     2     3    1
    11     2     5    1
    12     5     7    1
    13     5     6    1
