@<TRIPOS>MOLECULE
1
 13 13 0 0 0
SMALL
GASTEIGER

@<TRIPOS>ATOM
      1 O          -2.0811    1.6548    4.2179 O.3     1  UNL1       -0.3798
      2 C          -3.4739    1.6184    3.9286 C.3     1  UNL1        0.0477
      3 H          -4.0266    1.2668    4.8105 H       1  UNL1        0.0560
      4 H          -3.6238    0.9081    3.1123 H       1  UNL1        0.0560
      5 C          -3.8963    3.0568    3.5693 C.3     1  UNL1       -0.0274
      6 H          -4.7624    3.3580    4.1564 H       1  UNL1        0.0288
      7 H          -4.1574    3.1450    2.5164 H       1  UNL1        0.0288
      8 C          -2.6622    3.9018    3.9172 C.3     1  UNL1       -0.0274
      9 H          -2.1113    4.1727    3.0179 H       1  UNL1        0.0288
     10 H          -2.9164    4.8107    4.4571 H       1  UNL1        0.0288
     11 C          -1.8265    2.9466    4.7672 C.3     1  UNL1        0.0477
     12 H          -2.1494    2.9726    5.8174 H       1  UNL1        0.0560
     13 H          -0.7516    3.1255    4.7090 H       1  UNL1        0.0560
@<TRIPOS>BOND
     1     7     5    1
     2     9     8    1
     3     4     2    1
     4     5     8    1
     5     5     2    1
     6     5     6    1
     7     8    10    1
     8     8    11    1
     9     2     1    1
    10     2     3    1
    11     1    11    1
    12    13    11    1
    13    11    12    1
