@<TRIPOS>MOLECULE
1
 13 13 0 0 0
SMALL
GASTEIGER

@<TRIPOS>ATOM
      1 O           5.8508   15.4793   15.6498 O.3     1  UNL1       -0.3798
      2 C           5.7182   16.1768   16.8876 C.3     1  UNL1        0.0477
      3 H           6.4147   15.7299   17.5967 H       1  UNL1        0.0560
      4 H           4.6892   16.0646   17.2566 H       1  UNL1        0.0560
      5 C           6.0171   17.6559   16.5882 C.3     1  UNL1       -0.0274
      6 H           7.0169   17.9252   16.9219 H       1  UNL1        0.0288
      7 H           5.3019   18.3051   17.0893 H       1  UNL1        0.0288
      8 C           5.8998   17.7478   15.0577 C.3     1  UNL1       -0.0274
      9 H           5.2547   18.5609   14.7338 H       1  UNL1        0.0288
     10 H           6.8814   17.8814   14.6048 H       1  UNL1        0.0288
     11 C           5.3291   16.3798   14.6759 C.3     1  UNL1        0.0477
     12 H           4.2320   16.3916   14.7404 H       1  UNL1        0.0560
     13 H           5.6364   16.0346   13.6883 H       1  UNL1        0.0560
@<TRIPOS>BOND
     1    13    11    1
     2    10     8    1
     3    11    12    1
     4    11     8    1
     5    11     1    1
     6     9     8    1
     7     8     5    1
     8     1     2    1
     9     5     2    1
    10     5     6    1
    11     5     7    1
    12     2     4    1
    13     2     3    1
