@<TRIPOS>MOLECULE
1
 14 13 0 0 0
SMALL
GASTEIGER

@<TRIPOS>ATOM
      1 O           5.6059    9.1565    2.7339 O.3     1  UNL1       -0.2188
      2 F           8.9638    8.1314    3.0303 F       1  UNL1       -0.1675
      3 F           7.9321   10.0111    3.2917 F       1  UNL1       -0.1675
      4 F           7.6039    8.3965    4.6698 F       1  UNL1       -0.1675
      5 C           6.5952    8.2338    2.4914 C.3     1  UNL1        0.1928
      6 C           7.7865    8.6713    3.3719 C.3     1  UNL1        0.4209
      7 C           7.0377    8.2974    1.0198 C.3     1  UNL1       -0.0245
      8 H           6.1768    8.0889    0.3897 H       1  UNL1        0.0261
      9 H           7.8200    7.5697    0.8217 H       1  UNL1        0.0261
     10 H           7.4066    9.2962    0.7876 H       1  UNL1        0.0261
     11 C           6.1451    6.8232    2.8927 C.3     1  UNL1       -0.0245
     12 H           5.7138    6.8544    3.8958 H       1  UNL1        0.0261
     13 H           6.9827    6.1303    2.8711 H       1  UNL1        0.0261
     14 H           5.3773    6.4867    2.2002 H       1  UNL1        0.0261
@<TRIPOS>BOND
     1     8     7    1
     2    10     7    1
     3     9     7    1
     4     7     5    1
     5    14    11    1
     6     5     1    1
     7     5    11    1
     8     5     6    1
     9    13    11    1
    10    11    12    1
    11     2     6    1
    12     3     6    1
    13     6     4    1
