@<TRIPOS>MOLECULE
1
 14 13 0 0 0
SMALL
GASTEIGER

@<TRIPOS>ATOM
      1 O           5.7487   11.7515    4.3994 O.3     1  UNL1       -0.2188
      2 F           8.5414   12.4501    4.3400 F       1  UNL1       -0.1675
      3 F           7.8290   11.1539    5.9044 F       1  UNL1       -0.1675
      4 F           8.3272   13.2052    6.3341 F       1  UNL1       -0.1675
      5 C           6.2911   12.7932    5.1145 C.3     1  UNL1        0.1928
      6 C           7.7549   12.4011    5.4218 C.3     1  UNL1        0.4209
      7 C           6.3005   14.0982    4.3042 C.3     1  UNL1       -0.0245
      8 H           6.8323   14.8757    4.8468 H       1  UNL1        0.0261
      9 H           6.7906   13.9325    3.3455 H       1  UNL1        0.0261
     10 H           5.2765   14.4165    4.1251 H       1  UNL1        0.0261
     11 C           5.5416   12.9518    6.4457 C.3     1  UNL1       -0.0245
     12 H           5.5640   12.0039    6.9862 H       1  UNL1        0.0261
     13 H           5.9916   13.7331    7.0531 H       1  UNL1        0.0261
     14 H           4.5039   13.2039    6.2317 H       1  UNL1        0.0261
@<TRIPOS>BOND
     1     9     7    1
     2    10     7    1
     3     7     8    1
     4     7     5    1
     5     2     6    1
     6     1     5    1
     7     5     6    1
     8     5    11    1
     9     6     3    1
    10     6     4    1
    11    14    11    1
    12    11    12    1
    13    11    13    1
