@<TRIPOS>MOLECULE
1
 41 40 0 0 0
SMALL
GASTEIGER

@<TRIPOS>ATOM
      1 O           3.7192    3.9836    3.1969 O.3     1  UNL1        0.0000
      2 SI          5.0918    4.7516    3.5623 Si      1  UNL1        0.0000
      3 C           5.7245    3.8651    5.1926 C.3     1  UNL1        0.0000
      4 C           6.7271    4.7057    5.9836 C.3     1  UNL1        0.0000
      5 H           7.0700    4.1568    6.8609 H       1  UNL1        0.0000
      6 H           6.2864    5.6376    6.3258 H       1  UNL1        0.0000
      7 H           7.5947    4.9448    5.3734 H       1  UNL1        0.0000
      8 C           6.3880    2.5231    4.8687 C.3     1  UNL1        0.0000
      9 H           6.6242    1.9922    5.7919 H       1  UNL1        0.0000
     10 H           7.3167    2.6591    4.3221 H       1  UNL1        0.0000
     11 H           5.7160    1.8993    4.2830 H       1  UNL1        0.0000
     12 C           4.5168    3.5377    6.0800 C.3     1  UNL1        0.0000
     13 H           4.8281    2.9343    6.9335 H       1  UNL1        0.0000
     14 H           3.7778    2.9598    5.5103 H       1  UNL1        0.0000
     15 H           4.0374    4.4335    6.4617 H       1  UNL1        0.0000
     16 C           6.2242    4.4569    1.9917 C.3     1  UNL1        0.0000
     17 C           7.6873    4.8282    2.2332 C.3     1  UNL1        0.0000
     18 H           8.2728    4.6575    1.3298 H       1  UNL1        0.0000
     19 H           8.1212    4.2315    3.0308 H       1  UNL1        0.0000
     20 H           7.7831    5.8760    2.5057 H       1  UNL1        0.0000
     21 C           5.7089    5.2767    0.8047 C.3     1  UNL1        0.0000
     22 H           6.2812    5.0348   -0.0917 H       1  UNL1        0.0000
     23 H           5.8110    6.3438    0.9808 H       1  UNL1        0.0000
     24 H           4.6636    5.0416    0.6069 H       1  UNL1        0.0000
     25 C           6.1383    2.9869    1.5590 C.3     1  UNL1        0.0000
     26 H           6.5774    2.8641    0.5688 H       1  UNL1        0.0000
     27 H           5.0934    2.6687    1.5057 H       1  UNL1        0.0000
     28 H           6.6693    2.3319    2.2410 H       1  UNL1        0.0000
     29 C           4.5046    6.6027    3.8295 C.3     1  UNL1        0.0000
     30 C           5.6680    7.5945    3.7939 C.3     1  UNL1        0.0000
     31 H           5.3071    8.6064    3.9785 H       1  UNL1        0.0000
     32 H           6.1611    7.5879    2.8254 H       1  UNL1        0.0000
     33 H           6.4075    7.3549    4.5537 H       1  UNL1        0.0000
     34 C           3.4844    6.9848    2.7498 C.3     1  UNL1        0.0000
     35 H           3.0679    7.9696    2.9633 H       1  UNL1        0.0000
     36 H           2.6571    6.2668    2.7364 H       1  UNL1        0.0000
     37 H           3.9290    7.0183    1.7607 H       1  UNL1        0.0000
     38 C           3.7731    6.7627    5.1667 C.3     1  UNL1        0.0000
     39 H           3.3845    7.7778    5.2566 H       1  UNL1        0.0000
     40 H           4.4318    6.5892    6.0127 H       1  UNL1        0.0000
     41 H           2.9251    6.0793    5.2275 H       1  UNL1        0.0000
@<TRIPOS>BOND
     1    22    21    1
     2    26    25    1
     3    24    21    1
     4    21    23    1
     5    21    16    1
     6    18    17    1
     7    27    25    1
     8    25    16    1
     9    25    28    1
    10    37    34    1
    11    16    17    1
    12    16     2    1
    13    17    20    1
    14    17    19    1
    15    36    34    1
    16    34    35    1
    17    34    29    1
    18    32    30    1
    19     1     2    1
    20     2    29    1
    21     2     3    1
    22    30    29    1
    23    30    31    1
    24    30    33    1
    25    29    38    1
    26    11     8    1
    27    10     8    1
    28     8     3    1
    29     8     9    1
    30    38    41    1
    31    38    39    1
    32    38    40    1
    33     3     4    1
    34     3    12    1
    35     7     4    1
    36    14    12    1
    37     4     6    1
    38     4     5    1
    39    12    15    1
    40    12    13    1
