@<TRIPOS>MOLECULE
1
 13 13 0 0 0
SMALL
GASTEIGER

@<TRIPOS>ATOM
      1 O           9.0564    5.7483    3.9883 O.3     1  UNL1       -0.3798
      2 C          10.1897    5.5730    3.1356 C.3     1  UNL1        0.0477
      3 H          10.4081    6.5220    2.6280 H       1  UNL1        0.0560
      4 H           9.9432    4.8177    2.3855 H       1  UNL1        0.0560
      5 C          11.3499    5.1706    4.0400 C.3     1  UNL1       -0.0274
      6 H          11.3144    4.1010    4.2467 H       1  UNL1        0.0288
      7 H          12.3167    5.4186    3.6088 H       1  UNL1        0.0288
      8 C          11.0289    5.9674    5.3013 C.3     1  UNL1       -0.0274
      9 H          11.3466    7.0038    5.1809 H       1  UNL1        0.0288
     10 H          11.4901    5.5573    6.1966 H       1  UNL1        0.0288
     11 C           9.5043    5.8775    5.3451 C.3     1  UNL1        0.0477
     12 H           9.1737    4.9917    5.8998 H       1  UNL1        0.0560
     13 H           9.0392    6.7643    5.7808 H       1  UNL1        0.0560
@<TRIPOS>BOND
     1     4     2    1
     2     3     2    1
     3     2     1    1
     4     2     5    1
     5     7     5    1
     6     1    11    1
     7     5     6    1
     8     5     8    1
     9     9     8    1
    10     8    11    1
    11     8    10    1
    12    11    13    1
    13    11    12    1
