@<TRIPOS>MOLECULE
1
 13 13 0 0 0
SMALL
GASTEIGER

@<TRIPOS>ATOM
      1 O          10.8662    9.2505   13.1513 O.3     1  UNL1       -0.3798
      2 C          10.7194   10.1698   14.2385 C.3     1  UNL1        0.0477
      3 H          11.2891    9.7944   15.1011 H       1  UNL1        0.0560
      4 H           9.6620   10.2483   14.4941 H       1  UNL1        0.0560
      5 C          11.3158   11.4706   13.7056 C.3     1  UNL1       -0.0274
      6 H          10.5702   11.9789   13.0910 H       1  UNL1        0.0288
      7 H          11.6336   12.1378   14.5030 H       1  UNL1        0.0288
      8 C          12.4800   10.9742   12.8329 C.3     1  UNL1       -0.0274
      9 H          12.4652   11.4562   11.8576 H       1  UNL1        0.0288
     10 H          13.4461   11.1520   13.3027 H       1  UNL1        0.0288
     11 C          12.2076    9.4651   12.6965 C.3     1  UNL1        0.0477
     12 H          12.2800    9.1085   11.6671 H       1  UNL1        0.0560
     13 H          12.8884    8.8840   13.3354 H       1  UNL1        0.0560
@<TRIPOS>BOND
     1    12    11    1
     2     9     8    1
     3    11     8    1
     4    11     1    1
     5    11    13    1
     6     8    10    1
     7     8     5    1
     8     6     5    1
     9     1     2    1
    10     5     2    1
    11     5     7    1
    12     2     4    1
    13     2     3    1
