@<TRIPOS>MOLECULE
1
 13 13 0 0 0
SMALL
GASTEIGER

@<TRIPOS>ATOM
      1 O           7.1916    9.4623    9.6788 O.3     1  UNL1       -0.3798
      2 C           5.8652    9.7309   10.1474 C.3     1  UNL1        0.0477
      3 H           5.7678    9.3172   11.1531 H       1  UNL1        0.0560
      4 H           5.1514    9.2334    9.4747 H       1  UNL1        0.0560
      5 C           5.6874   11.2595   10.1034 C.3     1  UNL1       -0.0274
      6 H           5.7367   11.6799   11.1058 H       1  UNL1        0.0288
      7 H           4.7321   11.5252    9.6530 H       1  UNL1        0.0288
      8 C           6.8772   11.7337    9.2525 C.3     1  UNL1       -0.0274
      9 H           6.5976   12.4612    8.4945 H       1  UNL1        0.0288
     10 H           7.6530   12.1625    9.8898 H       1  UNL1        0.0288
     11 C           7.3946   10.4315    8.6454 C.3     1  UNL1        0.0477
     12 H           6.8041   10.1408    7.7644 H       1  UNL1        0.0560
     13 H           8.4550   10.4608    8.3920 H       1  UNL1        0.0560
@<TRIPOS>BOND
     1    12    11    1
     2    13    11    1
     3     9     8    1
     4    11     8    1
     5    11     1    1
     6     8    10    1
     7     8     5    1
     8     4     2    1
     9     7     5    1
    10     1     2    1
    11     5     2    1
    12     5     6    1
    13     2     3    1
