@<TRIPOS>MOLECULE
1
 13 13 0 0 0
SMALL
GASTEIGER

@<TRIPOS>ATOM
      1 O           3.6347    5.7483    2.7559 O.3     1  UNL1       -0.3798
      2 C           2.5013    5.5731    3.6085 C.3     1  UNL1        0.0477
      3 H           2.2828    6.5221    4.1161 H       1  UNL1        0.0560
      4 H           2.7476    4.8178    4.3586 H       1  UNL1        0.0560
      5 C           1.3411    5.1707    2.7041 C.3     1  UNL1       -0.0274
      6 H           1.3765    4.1010    2.4975 H       1  UNL1        0.0288
      7 H           0.3742    5.4187    3.1353 H       1  UNL1        0.0288
      8 C           1.6622    5.9674    1.4428 C.3     1  UNL1       -0.0274
      9 H           1.3444    7.0038    1.5632 H       1  UNL1        0.0288
     10 H           1.2010    5.5572    0.5476 H       1  UNL1        0.0288
     11 C           3.1869    5.8775    1.3991 C.3     1  UNL1        0.0477
     12 H           3.5174    4.9916    0.8444 H       1  UNL1        0.0560
     13 H           3.6520    6.7643    0.9633 H       1  UNL1        0.0560
@<TRIPOS>BOND
     1    10     8    1
     2    12    11    1
     3    13    11    1
     4    11     8    1
     5    11     1    1
     6     8     9    1
     7     8     5    1
     8     6     5    1
     9     5     7    1
    10     5     2    1
    11     1     2    1
    12     2     3    1
    13     2     4    1
