@<TRIPOS>MOLECULE
2
 44 46 0 0 0
SMALL
GASTEIGER

@<TRIPOS>ATOM
      1 SI         13.7797    4.2600    3.0174 Si      1  UNL1        0.0000
      2 O          15.0320    3.3350    3.4055 O.3     1  UNL1        0.0000
      3 C          13.2426    3.8631    1.2013 C.3     1  UNL1        0.0000
      4 C          12.3253    3.8403    4.2237 C.3     1  UNL1        0.0000
      5 C          14.3201    6.1029    3.2357 C.3     1  UNL1        0.0000
      6 C          11.6372    1.9834    1.5398 C.ar    1  UNL1        0.0000
      7 C          10.3583    1.4567    1.5205 C.ar    1  UNL1        0.0000
      8 C           9.2859    2.2332    1.1089 C.ar    1  UNL1        0.0000
      9 C           9.5003    3.5422    0.7150 C.ar    1  UNL1        0.0000
     10 C          10.7791    4.0718    0.7341 C.ar    1  UNL1        0.0000
     11 C          11.8602    3.3000    1.1423 C.ar    1  UNL1        0.0000
     12 C          12.3045    5.2299    6.3262 C.ar    1  UNL1        0.0000
     13 C          12.7447    5.4728    7.6162 C.ar    1  UNL1        0.0000
     14 C          13.6296    4.5996    8.2247 C.ar    1  UNL1        0.0000
     15 C          14.0710    3.4808    7.5355 C.ar    1  UNL1        0.0000
     16 C          13.6364    3.2416    6.2458 C.ar    1  UNL1        0.0000
     17 C          12.7419    4.1109    5.6266 C.ar    1  UNL1        0.0000
     18 C          16.8211    6.1121    3.1554 C.ar    1  UNL1        0.0000
     19 C          18.0593    6.1120    3.7729 C.ar    1  UNL1        0.0000
     20 C          18.1485    6.1501    5.1546 C.ar    1  UNL1        0.0000
     21 C          16.9886    6.1905    5.9104 C.ar    1  UNL1        0.0000
     22 C          15.7519    6.1942    5.2904 C.ar    1  UNL1        0.0000
     23 C          15.6500    6.1582    3.9040 C.ar    1  UNL1        0.0000
     24 H          13.9491    3.0939    0.8582 H       1  UNL1        0.0000
     25 H          13.3241    4.7277    0.5441 H       1  UNL1        0.0000
     26 H          12.1371    2.7671    4.1024 H       1  UNL1        0.0000
     27 H          11.4132    4.3787    3.9743 H       1  UNL1        0.0000
     28 H          13.5769    6.6206    3.8360 H       1  UNL1        0.0000
     29 H          14.3669    6.5957    2.2675 H       1  UNL1        0.0000
     30 H          12.4868    1.3710    1.8626 H       1  UNL1        0.0000
     31 H          10.1968    0.4350    1.8303 H       1  UNL1        0.0000
     32 H           8.2884    1.8188    1.0938 H       1  UNL1        0.0000
     33 H           8.6697    4.1533    0.3914 H       1  UNL1        0.0000
     34 H          10.9413    5.0958    0.4273 H       1  UNL1        0.0000
     35 H          11.6105    5.9129    5.8567 H       1  UNL1        0.0000
     36 H          12.3957    6.3461    8.1486 H       1  UNL1        0.0000
     37 H          13.9708    4.7867    9.2323 H       1  UNL1        0.0000
     38 H          14.7517    2.7947    8.0198 H       1  UNL1        0.0000
     39 H          13.9632    2.3626    5.6893 H       1  UNL1        0.0000
     40 H          16.7560    6.0764    2.0770 H       1  UNL1        0.0000
     41 H          18.9596    6.0825    3.1747 H       1  UNL1        0.0000
     42 H          19.1146    6.1487    5.6379 H       1  UNL1        0.0000
     43 H          17.0463    6.2172    6.9892 H       1  UNL1        0.0000
     44 H          14.8518    6.2223    5.8862 H       1  UNL1        0.0000
@<TRIPOS>BOND
     1    33     9    1
     2    34    10    1
     3    25     3    1
     4     9    10   ar
     5     9     8   ar
     6    10    11   ar
     7    24     3    1
     8    32     8    1
     9     8     7   ar
    10    11     3    1
    11    11     6   ar
    12     3     1    1
    13     7     6   ar
    14     7    31    1
    15     6    30    1
    16    40    18    1
    17    29     5    1
    18     1     5    1
    19     1     2    1
    20     1     4    1
    21    18    19   ar
    22    18    23   ar
    23    41    19    1
    24     5    28    1
    25     5    23    1
    26    19    20   ar
    27    23    22   ar
    28    27     4    1
    29    26     4    1
    30     4    17    1
    31    20    42    1
    32    20    21   ar
    33    22    44    1
    34    22    21   ar
    35    17    16   ar
    36    17    12   ar
    37    39    16    1
    38    35    12    1
    39    21    43    1
    40    16    15   ar
    41    12    13   ar
    42    15    38    1
    43    15    14   ar
    44    13    36    1
    45    13    14   ar
    46    14    37    1
