@<TRIPOS>MOLECULE
1
 30 30 0 0 0
SMALL
GASTEIGER

@<TRIPOS>ATOM
      1 O          13.9920    1.0265    3.2843 O.3     1  UNL1       -0.2873
      2 C          13.1666   -0.0120    3.2634 C.ar    1  UNL1        0.1858
      3 C          12.6289   -0.4535    2.0335 C.ar    1  UNL1        0.0021
      4 C          11.7626   -1.5317    2.0121 C.ar    1  UNL1       -0.0547
      5 C          11.4225   -2.1971    3.1759 C.ar    1  UNL1       -0.0610
      6 C          11.9486   -1.7726    4.3798 C.ar    1  UNL1       -0.0547
      7 C          12.8120   -0.6904    4.4509 C.ar    1  UNL1        0.0021
      8 C          12.9504   -0.5288   -0.4875 C.3     1  UNL1       -0.0585
      9 C          12.9754    0.3198    0.7823 C.3     1  UNL1       -0.0179
     10 C          12.0053    1.5015    0.6619 C.3     1  UNL1       -0.0585
     11 C          14.2562   -1.3601    6.3769 C.3     1  UNL1       -0.0585
     12 C          13.3703   -0.2585    5.7880 C.3     1  UNL1       -0.0179
     13 C          12.2654    0.0885    6.7884 C.3     1  UNL1       -0.0585
     14 H          11.3434   -1.8646    1.0755 H       1  UNL1        0.0622
     15 H          10.7492   -3.0406    3.1428 H       1  UNL1        0.0618
     16 H          11.6798   -2.2937    5.2866 H       1  UNL1        0.0622
     17 H          13.3730    0.0338   -1.3183 H       1  UNL1        0.0235
     18 H          11.9328   -0.8029   -0.7574 H       1  UNL1        0.0235
     19 H          13.5335   -1.4376   -0.3554 H       1  UNL1        0.0235
     20 H          13.9901    0.7288    0.9129 H       1  UNL1        0.0345
     21 H          10.9752    1.1502    0.7042 H       1  UNL1        0.0235
     22 H          12.1526    2.0253   -0.2808 H       1  UNL1        0.0235
     23 H          12.1835    2.1994    1.4832 H       1  UNL1        0.0235
     24 H          14.7487   -1.0059    7.2804 H       1  UNL1        0.0235
     25 H          15.0148   -1.6716    5.6638 H       1  UNL1        0.0235
     26 H          13.6557   -2.2302    6.6346 H       1  UNL1        0.0235
     27 H          13.9765    0.6446    5.6225 H       1  UNL1        0.0345
     28 H          12.7060    0.4684    7.7081 H       1  UNL1        0.0235
     29 H          11.6712   -0.7900    7.0294 H       1  UNL1        0.0235
     30 H          11.6062    0.8536    6.3910 H       1  UNL1        0.0235
@<TRIPOS>BOND
     1    17     8    1
     2    18     8    1
     3     8    19    1
     4     8     9    1
     5    22    10    1
     6    10    21    1
     7    10     9    1
     8    10    23    1
     9     9    20    1
    10     9     3    1
    11    14     4    1
    12     4     3   ar
    13     4     5   ar
    14     3     2   ar
    15    15     5    1
    16     5     6   ar
    17     2     1    1
    18     2     7   ar
    19     6     7   ar
    20     6    16    1
    21     7    12    1
    22    27    12    1
    23    25    11    1
    24    12    11    1
    25    12    13    1
    26    11    26    1
    27    11    24    1
    28    30    13    1
    29    13    29    1
    30    13    28    1
