@<TRIPOS>MOLECULE
1
 30 30 0 0 0
SMALL
GASTEIGER

@<TRIPOS>ATOM
      1 O          14.5847    3.4358    4.7241 O.3     1  UNL1       -0.2873
      2 C          13.8243    3.4616    5.8172 C.ar    1  UNL1        0.1858
      3 C          14.4439    3.4973    7.0862 C.ar    1  UNL1        0.0021
      4 C          13.6633    3.5329    8.2282 C.ar    1  UNL1       -0.0547
      5 C          12.2831    3.5345    8.1488 C.ar    1  UNL1       -0.0610
      6 C          11.6748    3.5278    6.9089 C.ar    1  UNL1       -0.0547
      7 C          12.4150    3.4970    5.7356 C.ar    1  UNL1        0.0021
      8 C          16.3919    4.9931    7.4821 C.3     1  UNL1       -0.0585
      9 C          15.9529    3.5590    7.1686 C.3     1  UNL1       -0.0179
     10 C          16.5232    2.5884    8.2030 C.3     1  UNL1       -0.0585
     11 C          10.9006    4.8834    4.3268 C.3     1  UNL1       -0.0585
     12 C          11.7027    3.5774    4.4008 C.3     1  UNL1       -0.0179
     13 C          10.7635    2.3916    4.1628 C.3     1  UNL1       -0.0585
     14 H          14.1385    3.5664    9.1969 H       1  UNL1        0.0622
     15 H          11.6852    3.5560    9.0475 H       1  UNL1        0.0618
     16 H          10.5963    3.5526    6.8533 H       1  UNL1        0.0622
     17 H          17.4776    5.0631    7.4895 H       1  UNL1        0.0235
     18 H          16.0162    5.3018    8.4557 H       1  UNL1        0.0235
     19 H          16.0064    5.6811    6.7324 H       1  UNL1        0.0235
     20 H          16.3529    3.2897    6.1805 H       1  UNL1        0.0345
     21 H          16.1312    1.5861    8.0476 H       1  UNL1        0.0235
     22 H          16.2759    2.9028    9.2142 H       1  UNL1        0.0235
     23 H          17.6076    2.5511    8.1198 H       1  UNL1        0.0235
     24 H          10.0447    4.8379    4.9965 H       1  UNL1        0.0235
     25 H          10.5285    5.0497    3.3176 H       1  UNL1        0.0235
     26 H          11.5118    5.7328    4.6220 H       1  UNL1        0.0235
     27 H          12.4676    3.5695    3.5999 H       1  UNL1        0.0345
     28 H          10.2299    2.5225    3.2226 H       1  UNL1        0.0235
     29 H          10.0260    2.3142    4.9592 H       1  UNL1        0.0235
     30 H          11.3197    1.4584    4.1116 H       1  UNL1        0.0235
@<TRIPOS>BOND
     1    28    13    1
     2    25    11    1
     3    27    12    1
     4    30    13    1
     5    13    12    1
     6    13    29    1
     7    11    12    1
     8    11    26    1
     9    11    24    1
    10    12     7    1
    11     1     2    1
    12     7     2   ar
    13     7     6   ar
    14     2     3   ar
    15    20     9    1
    16    19     8    1
    17    16     6    1
    18     6     5   ar
    19     3     9    1
    20     3     4   ar
    21     9     8    1
    22     9    10    1
    23     8    17    1
    24     8    18    1
    25    21    10    1
    26    23    10    1
    27     5     4   ar
    28     5    15    1
    29    10    22    1
    30     4    14    1
