@<TRIPOS>MOLECULE
1
 16 16 0 0 0
SMALL
GASTEIGER

@<TRIPOS>ATOM
      1 O           6.1268    6.8863    4.8810 O.3     1  UNL1       -0.3904
      2 H           6.9273    6.3829    5.1604 H       1  UNL1        0.2098
      3 C           5.0228    6.5284    5.6994 C.3     1  UNL1        0.0692
      4 H           5.1260    7.0310    6.6733 H       1  UNL1        0.0607
      5 H           5.0007    5.4460    5.8622 H       1  UNL1        0.0607
      6 C           3.7517    6.9723    5.0291 C.ar    1  UNL1       -0.0222
      7 C           3.6218    8.2971    4.6261 C.ar    1  UNL1       -0.0564
      8 H           4.4292    8.9873    4.8198 H       1  UNL1        0.0621
      9 C           2.4732    8.7224    3.9844 C.ar    1  UNL1       -0.0614
     10 H           2.3825    9.7511    3.6700 H       1  UNL1        0.0618
     11 C           1.4441    7.8281    3.7410 C.ar    1  UNL1       -0.0617
     12 H           0.5492    8.1576    3.2351 H       1  UNL1        0.0618
     13 C           1.5669    6.5092    4.1422 C.ar    1  UNL1       -0.0614
     14 H           0.7685    5.8085    3.9482 H       1  UNL1        0.0618
     15 C           2.7178    6.0813    4.7814 C.ar    1  UNL1       -0.0564
     16 H           2.8134    5.0491    5.0863 H       1  UNL1        0.0621
@<TRIPOS>BOND
     1    12    11    1
     2    10     9    1
     3    11     9   ar
     4    11    13   ar
     5    14    13    1
     6     9     7   ar
     7    13    15   ar
     8     7     8    1
     9     7     6   ar
    10    15     6   ar
    11    15    16    1
    12     1     2    1
    13     1     3    1
    14     6     3    1
    15     3     5    1
    16     3     4    1
