@<TRIPOS>MOLECULE
13
 13 13 0 0 0
SMALL
GASTEIGER

@<TRIPOS>ATOM
      1 C           1.8822    1.3050   -0.0360 C.3     1  UNL1        0.0477
      2 H           0.9781    0.6814    0.0121 H       1  UNL1        0.0560
      3 H           2.7241    0.7716    0.4093 H       1  UNL1        0.0560
      4 C           2.1200    1.7820   -1.4619 C.3     1  UNL1       -0.0274
      5 H           1.9288    1.0051   -2.1977 H       1  UNL1        0.0288
      6 H           3.1430    2.1401   -1.5741 H       1  UNL1        0.0288
      7 C           1.2370    3.5509   -0.1466 C.3     1  UNL1        0.0477
      8 H           0.2804    3.9410    0.2152 H       1  UNL1        0.0560
      9 H           1.9886    4.3492   -0.1148 H       1  UNL1        0.0560
     10 C           1.1342    2.9443   -1.5469 C.3     1  UNL1       -0.0274
     11 H           1.3871    3.6632   -2.3222 H       1  UNL1        0.0288
     12 H           0.1264    2.5704   -1.7298 H       1  UNL1        0.0288
     13 O           1.6727    2.4980    0.7397 O.3     1  UNL1       -0.3798
@<TRIPOS>BOND
     1    11    10    1
     2     5     4    1
     3    12    10    1
     4     6     4    1
     5    10     4    1
     6    10     7    1
     7     4     1    1
     8     7     9    1
     9     7     8    1
    10     7    13    1
    11     1     2    1
    12     1     3    1
    13     1    13    1
