@<TRIPOS>MOLECULE
2
 23 22 0 0 0
SMALL
GASTEIGER

@<TRIPOS>ATOM
      1 P           8.5875    0.1978    5.8864 P.3     1  UNL1        0.0276
      2 O           9.3666   -1.0394    5.6164 O.3     1  UNL1       -0.2169
      3 C           9.5275    1.4191    6.8968 C.3     1  UNL1       -0.0132
      4 C          10.8650    1.7481    6.2507 C.3     1  UNL1       -0.0596
      5 C           7.0263   -0.1520    6.7947 C.3     1  UNL1       -0.0132
      6 C           7.3002   -0.6939    8.1896 C.3     1  UNL1       -0.0596
      7 C           8.0962    1.0849    4.3479 C.3     1  UNL1       -0.0132
      8 C           7.0608    0.2934    3.5631 C.3     1  UNL1       -0.0596
      9 H           9.6946    0.9610    7.8724 H       1  UNL1        0.0329
     10 H           8.9224    2.3155    7.0362 H       1  UNL1        0.0329
     11 H          11.4815    2.3438    6.9208 H       1  UNL1        0.0234
     12 H          11.4041    0.8311    6.0229 H       1  UNL1        0.0234
     13 H          10.7271    2.3047    5.3268 H       1  UNL1        0.0234
     14 H           6.4975   -0.9067    6.2079 H       1  UNL1        0.0329
     15 H           6.4167    0.7510    6.8362 H       1  UNL1        0.0329
     16 H           6.3804   -1.0684    8.6340 H       1  UNL1        0.0234
     17 H           8.0103   -1.5154    8.1311 H       1  UNL1        0.0234
     18 H           7.7054    0.0766    8.8420 H       1  UNL1        0.0234
     19 H           9.0026    1.2041    3.7525 H       1  UNL1        0.0329
     20 H           7.7199    2.0752    4.6065 H       1  UNL1        0.0329
     21 H           6.9325    0.7151    2.5681 H       1  UNL1        0.0234
     22 H           7.3827   -0.7405    3.4642 H       1  UNL1        0.0234
     23 H           6.0959    0.3042    4.0649 H       1  UNL1        0.0234
@<TRIPOS>BOND
     1    21     8    1
     2    22     8    1
     3     8    23    1
     4     8     7    1
     5    19     7    1
     6     7    20    1
     7     7     1    1
     8    13     4    1
     9     2     1    1
    10     1     5    1
    11     1     3    1
    12    12     4    1
    13    14     5    1
    14     4     3    1
    15     4    11    1
    16     5    15    1
    17     5     6    1
    18     3    10    1
    19     3     9    1
    20    17     6    1
    21     6    16    1
    22     6    18    1
