@<TRIPOS>MOLECULE
1
 13 13 0 0 0
SMALL
GASTEIGER

@<TRIPOS>ATOM
      1 O           9.4763    6.6610    6.7713 O.3     1  UNL1       -0.3798
      2 C          10.6507    6.3886    7.5321 C.3     1  UNL1        0.0477
      3 H          10.4351    6.5338    8.6000 H       1  UNL1        0.0560
      4 H          11.4238    7.0890    7.2194 H       1  UNL1        0.0560
      5 C          10.9895    4.9226    7.2498 C.3     1  UNL1       -0.0274
      6 H          11.6333    4.8529    6.3759 H       1  UNL1        0.0288
      7 H          11.4926    4.4587    8.0950 H       1  UNL1        0.0288
      8 C           9.6174    4.2947    6.9600 C.3     1  UNL1       -0.0274
      9 H           9.3209    3.5812    7.7262 H       1  UNL1        0.0288
     10 H           9.6191    3.7825    6.0000 H       1  UNL1        0.0288
     11 C           8.6636    5.4992    6.9399 C.3     1  UNL1        0.0477
     12 H           7.9376    5.4691    6.1291 H       1  UNL1        0.0560
     13 H           8.1190    5.5710    7.8911 H       1  UNL1        0.0560
@<TRIPOS>BOND
     1    10     8    1
     2    12    11    1
     3     6     5    1
     4     1    11    1
     5     1     2    1
     6    11     8    1
     7    11    13    1
     8     8     5    1
     9     8     9    1
    10     4     2    1
    11     5     2    1
    12     5     7    1
    13     2     3    1
