@<TRIPOS>MOLECULE
1
 13 13 0 0 0
SMALL
GASTEIGER

@<TRIPOS>ATOM
      1 O           9.5010    6.5736    6.9592 O.3     1  UNL1       -0.3798
      2 C          10.6241    6.2493    7.7725 C.3     1  UNL1        0.0477
      3 H          10.3544    6.3686    8.8322 H       1  UNL1        0.0560
      4 H          11.4324    6.9375    7.5206 H       1  UNL1        0.0560
      5 C          10.9389    4.7827    7.4619 C.3     1  UNL1       -0.0274
      6 H          11.6295    4.7221    6.6234 H       1  UNL1        0.0288
      7 H          11.3810    4.2781    8.3178 H       1  UNL1        0.0288
      8 C           9.5677    4.2045    7.0761 C.3     1  UNL1       -0.0274
      9 H           9.6066    3.7301    6.0974 H       1  UNL1        0.0288
     10 H           9.2129    3.4704    7.7966 H       1  UNL1        0.0288
     11 C           8.6473    5.4352    7.0537 C.3     1  UNL1        0.0477
     12 H           7.9582    5.4539    6.2103 H       1  UNL1        0.0560
     13 H           8.0634    5.4944    7.9821 H       1  UNL1        0.0560
@<TRIPOS>BOND
     1     9     8    1
     2    12    11    1
     3     6     5    1
     4     1    11    1
     5     1     2    1
     6    11     8    1
     7    11    13    1
     8     8     5    1
     9     8    10    1
    10     5     2    1
    11     5     7    1
    12     4     2    1
    13     2     3    1
