@<TRIPOS>MOLECULE
1
 13 13 0 0 0
SMALL
GASTEIGER

@<TRIPOS>ATOM
      1 O           2.8940   -0.9734    3.7089 O.3     1  UNL1       -0.3798
      2 C           3.0268   -2.1481    2.8927 C.3     1  UNL1        0.0477
      3 H           3.0631   -1.8346    1.8441 H       1  UNL1        0.0560
      4 H           2.1513   -2.7860    3.0402 H       1  UNL1        0.0560
      5 C           4.3284   -2.8367    3.2988 C.3     1  UNL1       -0.0274
      6 H           4.7937   -3.3555    2.4640 H       1  UNL1        0.0288
      7 H           4.1467   -3.5516    4.1018 H       1  UNL1        0.0288
      8 C           5.1546   -1.6635    3.8167 C.3     1  UNL1       -0.0274
      9 H           5.9433   -1.9627    4.5021 H       1  UNL1        0.0288
     10 H           5.5955   -1.1032    2.9918 H       1  UNL1        0.0288
     11 C           4.0798   -0.8285    4.5007 C.3     1  UNL1        0.0477
     12 H           3.8821   -1.2106    5.5111 H       1  UNL1        0.0560
     13 H           4.3307    0.2328    4.5480 H       1  UNL1        0.0560
@<TRIPOS>BOND
     1     3     2    1
     2     6     5    1
     3     2     4    1
     4     2     5    1
     5     2     1    1
     6    10     8    1
     7     5     8    1
     8     5     7    1
     9     1    11    1
    10     8    11    1
    11     8     9    1
    12    11    13    1
    13    11    12    1
