@<TRIPOS>MOLECULE
1
 13 13 0 0 0
SMALL
GASTEIGER

@<TRIPOS>ATOM
      1 O          -1.8896    6.0789    5.0642 O.3     1  UNL1       -0.3798
      2 C          -2.8042    6.3395    3.9856 C.3     1  UNL1        0.0477
      3 C          -3.8157    5.1869    3.9533 C.3     1  UNL1       -0.0274
      4 C          -3.6427    4.5422    5.3279 C.3     1  UNL1       -0.0274
      5 C          -2.1540    4.7603    5.5630 C.3     1  UNL1        0.0477
      6 H          -3.2881    7.3014    4.1845 H       1  UNL1        0.0560
      7 H          -2.2441    6.4209    3.0481 H       1  UNL1        0.0560
      8 H          -3.5575    4.4737    3.1706 H       1  UNL1        0.0288
      9 H          -4.8276    5.5435    3.7777 H       1  UNL1        0.0288
     10 H          -4.2318    5.0724    6.0774 H       1  UNL1        0.0288
     11 H          -3.9167    3.4905    5.3410 H       1  UNL1        0.0288
     12 H          -1.5657    4.0317    4.9947 H       1  UNL1        0.0560
     13 H          -1.8484    4.7366    6.6112 H       1  UNL1        0.0560
@<TRIPOS>BOND
     1     7     2    1
     2     8     3    1
     3     9     3    1
     4     3     2    1
     5     3     4    1
     6     2     6    1
     7     2     1    1
     8    12     5    1
     9     1     5    1
    10     4    11    1
    11     4     5    1
    12     4    10    1
    13     5    13    1
