@<TRIPOS>MOLECULE
1
 13 13 0 0 0
SMALL
GASTEIGER

@<TRIPOS>ATOM
      1 O          -2.4906    2.6942    2.4428 O.3     1  UNL1       -0.3798
      2 C          -3.1245    1.5270    2.9591 C.3     1  UNL1        0.0477
      3 C          -3.2546    0.5899    1.7611 C.3     1  UNL1       -0.0274
      4 C          -3.5279    1.5640    0.6076 C.3     1  UNL1       -0.0274
      5 C          -3.0472    2.9248    1.1462 C.3     1  UNL1        0.0477
      6 H          -4.1200    1.7882    3.3489 H       1  UNL1        0.0560
      7 H          -2.4959    1.1444    3.7654 H       1  UNL1        0.0560
      8 H          -4.0520   -0.1375    1.8926 H       1  UNL1        0.0288
      9 H          -2.3176    0.0598    1.6004 H       1  UNL1        0.0288
     10 H          -2.9905    1.2772   -0.2936 H       1  UNL1        0.0288
     11 H          -4.5902    1.6021    0.3703 H       1  UNL1        0.0288
     12 H          -2.2643    3.3772    0.5340 H       1  UNL1        0.0560
     13 H          -3.8872    3.6280    1.2301 H       1  UNL1        0.0560
@<TRIPOS>BOND
     1    10     4    1
     2    11     4    1
     3    12     5    1
     4     4     5    1
     5     4     3    1
     6     5    13    1
     7     5     1    1
     8     9     3    1
     9     3     8    1
    10     3     2    1
    11     1     2    1
    12     2     6    1
    13     2     7    1
