@<TRIPOS>MOLECULE
1
 13 13 0 0 0
SMALL
GASTEIGER

@<TRIPOS>ATOM
      1 O          17.2212    9.2432   13.0757 O.3     1  UNL1       -0.3798
      2 C          17.3581    7.9691   12.4430 C.3     1  UNL1        0.0477
      3 H          17.8455    8.0990   11.4680 H       1  UNL1        0.0560
      4 H          16.3592    7.5577   12.2935 H       1  UNL1        0.0560
      5 C          18.2277    7.1266   13.3701 C.3     1  UNL1       -0.0274
      6 H          18.7366    6.3241   12.8417 H       1  UNL1        0.0288
      7 H          17.6201    6.6997   14.1676 H       1  UNL1        0.0288
      8 C          19.1793    8.1820   13.9269 C.3     1  UNL1       -0.0274
      9 H          19.6135    7.9087   14.8857 H       1  UNL1        0.0288
     10 H          19.9857    8.3759   13.2188 H       1  UNL1        0.0288
     11 C          18.2630    9.3977   14.0463 C.3     1  UNL1        0.0477
     12 H          17.8035    9.4448   15.0403 H       1  UNL1        0.0560
     13 H          18.7780   10.3438   13.8648 H       1  UNL1        0.0560
@<TRIPOS>BOND
     1     3     2    1
     2     4     2    1
     3     2     1    1
     4     2     5    1
     5     6     5    1
     6     1    11    1
     7    10     8    1
     8     5     8    1
     9     5     7    1
    10    13    11    1
    11     8    11    1
    12     8     9    1
    13    11    12    1
