@<TRIPOS>MOLECULE
1
 13 13 0 0 0
SMALL
GASTEIGER

@<TRIPOS>ATOM
      1 O          14.7104   13.4605   10.7528 O.3     1  UNL1       -0.3798
      2 C          15.3939   14.2620    9.7990 C.3     1  UNL1        0.0477
      3 H          16.4633   14.0890    9.9210 H       1  UNL1        0.0560
      4 H          15.1779   15.3212    9.9924 H       1  UNL1        0.0560
      5 C          14.8435   13.8483    8.4265 C.3     1  UNL1       -0.0274
      6 H          15.4884   13.1022    7.9672 H       1  UNL1        0.0288
      7 H          14.7737   14.7048    7.7590 H       1  UNL1        0.0288
      8 C          13.4660   13.2498    8.7592 C.3     1  UNL1       -0.0274
      9 H          12.6522   13.7732    8.2615 H       1  UNL1        0.0288
     10 H          13.4242   12.1999    8.4746 H       1  UNL1        0.0288
     11 C          13.3710   13.3998   10.2841 C.3     1  UNL1        0.0477
     12 H          12.8477   14.3323   10.5414 H       1  UNL1        0.0560
     13 H          12.8792   12.5662   10.7853 H       1  UNL1        0.0560
@<TRIPOS>BOND
     1     7     5    1
     2     6     5    1
     3     9     8    1
     4     5     8    1
     5     5     2    1
     6    10     8    1
     7     8    11    1
     8     2     3    1
     9     2     4    1
    10     2     1    1
    11    11    12    1
    12    11     1    1
    13    11    13    1
