@<TRIPOS>MOLECULE
1
 13 13 0 0 0
SMALL
GASTEIGER

@<TRIPOS>ATOM
      1 O          -0.5301    8.8939    5.9543 O.3     1  UNL1       -0.3798
      2 C          -0.6407    9.0957    7.3776 C.3     1  UNL1        0.0477
      3 H           0.1056    9.8350    7.6897 H       1  UNL1        0.0560
      4 H          -0.4328    8.1475    7.8757 H       1  UNL1        0.0560
      5 C          -2.0504    9.6158    7.6255 C.3     1  UNL1       -0.0274
      6 H          -2.1184   10.1923    8.5439 H       1  UNL1        0.0288
      7 H          -2.7609    8.7897    7.6666 H       1  UNL1        0.0288
      8 C          -2.2798   10.4515    6.3697 C.3     1  UNL1       -0.0274
      9 H          -1.7740   11.4131    6.4604 H       1  UNL1        0.0288
     10 H          -3.3308   10.6215    6.1497 H       1  UNL1        0.0288
     11 C          -1.6017    9.5923    5.3065 C.3     1  UNL1        0.0477
     12 H          -2.3031    8.8528    4.8984 H       1  UNL1        0.0560
     13 H          -1.1877   10.1769    4.4829 H       1  UNL1        0.0560
@<TRIPOS>BOND
     1    13    11    1
     2    12    11    1
     3    11     1    1
     4    11     8    1
     5     1     2    1
     6    10     8    1
     7     8     9    1
     8     8     5    1
     9     2     5    1
    10     2     3    1
    11     2     4    1
    12     5     7    1
    13     5     6    1
