@<TRIPOS>MOLECULE
1
 13 13 0 0 0
SMALL
GASTEIGER

@<TRIPOS>ATOM
      1 O          -0.0521    7.2978    1.8980 O.3     1  UNL1       -0.3798
      2 C          -0.0104    7.3979    0.4725 C.3     1  UNL1        0.0477
      3 H          -0.2622    8.4235    0.1996 H       1  UNL1        0.0560
      4 H          -0.7566    6.7201    0.0403 H       1  UNL1        0.0560
      5 C           1.4075    6.9827    0.0399 C.3     1  UNL1       -0.0274
      6 H           1.3628    6.2991   -0.8051 H       1  UNL1        0.0288
      7 H           2.0013    7.8464   -0.2546 H       1  UNL1        0.0288
      8 C           1.9907    6.3035    1.2897 C.3     1  UNL1       -0.0274
      9 H           2.4251    5.3306    1.0729 H       1  UNL1        0.0288
     10 H           2.7575    6.9261    1.7513 H       1  UNL1        0.0288
     11 C           0.7729    6.1833    2.2102 C.3     1  UNL1        0.0477
     12 H           0.2336    5.2504    1.9926 H       1  UNL1        0.0560
     13 H           1.0133    6.2266    3.2711 H       1  UNL1        0.0560
@<TRIPOS>BOND
     1     6     5    1
     2     7     5    1
     3     5     2    1
     4     5     8    1
     5     4     2    1
     6     3     2    1
     7     2     1    1
     8     9     8    1
     9     8    10    1
    10     8    11    1
    11     1    11    1
    12    12    11    1
    13    11    13    1
