@<TRIPOS>MOLECULE
1
 13 13 0 0 0
SMALL
GASTEIGER

@<TRIPOS>ATOM
      1 O          -2.0377    7.8518   13.7203 O.3     1  UNL1       -0.3798
      2 C          -3.3620    8.1931   14.1365 C.3     1  UNL1        0.0477
      3 C          -3.5409    9.6476   13.6896 C.3     1  UNL1       -0.0274
      4 C          -2.6492    9.7364   12.4374 C.3     1  UNL1       -0.0274
      5 C          -1.9499    8.3678   12.3943 C.3     1  UNL1        0.0477
      6 H          -4.0783    7.5409   13.6194 H       1  UNL1        0.0560
      7 H          -3.4264    8.0295   15.2153 H       1  UNL1        0.0560
      8 H          -3.1825   10.3266   14.4629 H       1  UNL1        0.0288
      9 H          -4.5824    9.8797   13.4792 H       1  UNL1        0.0288
     10 H          -1.9131   10.5317   12.5355 H       1  UNL1        0.0288
     11 H          -3.2281    9.9104   11.5329 H       1  UNL1        0.0288
     12 H          -2.4760    7.6861   11.7112 H       1  UNL1        0.0560
     13 H          -0.8984    8.4263   12.1113 H       1  UNL1        0.0560
@<TRIPOS>BOND
     1    11     4    1
     2    12     5    1
     3    13     5    1
     4     5     4    1
     5     5     1    1
     6     4    10    1
     7     4     3    1
     8     9     3    1
     9     6     2    1
    10     3     2    1
    11     3     8    1
    12     1     2    1
    13     2     7    1
