@<TRIPOS>MOLECULE
1
 13 13 0 0 0
SMALL
GASTEIGER

@<TRIPOS>ATOM
      1 O           8.0403    6.8071   14.9326 O.3     1  UNL1       -0.3798
      2 C           8.1892    7.6462   13.7918 C.3     1  UNL1        0.0477
      3 H           8.4585    8.6615   14.1180 H       1  UNL1        0.0560
      4 H           7.2431    7.6685   13.2534 H       1  UNL1        0.0560
      5 C           9.3333    7.0218   12.9885 C.3     1  UNL1       -0.0274
      6 H           8.9349    6.2659   12.3141 H       1  UNL1        0.0288
      7 H           9.8679    7.7661   12.4036 H       1  UNL1        0.0288
      8 C          10.2095    6.3790   14.0763 C.3     1  UNL1       -0.0274
      9 H          10.3846    5.3259   13.8648 H       1  UNL1        0.0288
     10 H          11.1736    6.8742   14.1713 H       1  UNL1        0.0288
     11 C           9.3754    6.5528   15.3580 C.3     1  UNL1        0.0477
     12 H           9.3656    5.6674   15.9932 H       1  UNL1        0.0560
     13 H           9.7394    7.4115   15.9395 H       1  UNL1        0.0560
@<TRIPOS>BOND
     1     6     5    1
     2     7     5    1
     3     5     2    1
     4     5     8    1
     5     4     2    1
     6     2     3    1
     7     2     1    1
     8     9     8    1
     9     8    10    1
    10     8    11    1
    11     1    11    1
    12    11    13    1
    13    11    12    1
