@<TRIPOS>MOLECULE
1
 13 13 0 0 0
SMALL
GASTEIGER

@<TRIPOS>ATOM
      1 O          11.0836    8.5102    8.5556 O.3     1  UNL1       -0.3798
      2 C          11.4766    9.6169    7.7365 C.3     1  UNL1        0.0477
      3 H          10.5878   10.0109    7.2407 H       1  UNL1        0.0560
      4 H          11.9107   10.3956    8.3799 H       1  UNL1        0.0560
      5 C          12.5168    9.0784    6.7613 C.3     1  UNL1       -0.0274
      6 H          12.0209    8.5956    5.9186 H       1  UNL1        0.0288
      7 H          13.1830    9.8556    6.3949 H       1  UNL1        0.0288
      8 C          13.2211    8.0365    7.6246 C.3     1  UNL1       -0.0274
      9 H          13.9376    8.5174    8.2919 H       1  UNL1        0.0288
     10 H          13.7341    7.2754    7.0423 H       1  UNL1        0.0288
     11 C          12.0510    7.4591    8.4167 C.3     1  UNL1        0.0477
     12 H          11.5832    6.6340    7.8666 H       1  UNL1        0.0560
     13 H          12.3366    7.1180    9.4160 H       1  UNL1        0.0560
@<TRIPOS>BOND
     1     6     5    1
     2     7     5    1
     3     5     8    1
     4     5     2    1
     5    10     8    1
     6     3     2    1
     7     8     9    1
     8     8    11    1
     9     2     4    1
    10     2     1    1
    11    12    11    1
    12    11     1    1
    13    11    13    1
