@<TRIPOS>MOLECULE
1
 13 13 0 0 0
SMALL
GASTEIGER

@<TRIPOS>ATOM
      1 O           0.4542    8.9658   17.7959 O.3     1  UNL1       -0.3798
      2 C           1.2255    8.3544   18.8231 C.3     1  UNL1        0.0477
      3 H           2.1017    8.9769   19.0068 H       1  UNL1        0.0560
      4 H           1.5502    7.3558   18.4972 H       1  UNL1        0.0560
      5 C           0.2794    8.2496   20.0245 C.3     1  UNL1       -0.0274
      6 H           0.3378    9.1552   20.6270 H       1  UNL1        0.0288
      7 H           0.5250    7.3985   20.6551 H       1  UNL1        0.0288
      8 C          -1.1063    8.1209   19.3689 C.3     1  UNL1       -0.0274
      9 H          -1.7934    8.8731   19.7510 H       1  UNL1        0.0288
     10 H          -1.5469    7.1403   19.5368 H       1  UNL1        0.0288
     11 C          -0.8252    8.3447   17.8729 C.3     1  UNL1        0.0477
     12 H          -0.7944    7.3809   17.3451 H       1  UNL1        0.0560
     13 H          -1.5469    9.0001   17.3849 H       1  UNL1        0.0560
@<TRIPOS>BOND
     1    12    11    1
     2    13    11    1
     3     1    11    1
     4     1     2    1
     5    11     8    1
     6     4     2    1
     7     2     3    1
     8     2     5    1
     9     8    10    1
    10     8     9    1
    11     8     5    1
    12     5     6    1
    13     5     7    1
