@<TRIPOS>MOLECULE
2
 35 37 0 0 0
SMALL
GASTEIGER

@<TRIPOS>ATOM
      1 SI          3.8673    2.9327    2.0225 Si      1  UNL1        0.0000
      2 O           2.9221    3.1777    3.2997 O.3     1  UNL1        0.0000
      3 C           3.0525    3.7300    0.4999 C.ar    1  UNL1        0.0000
      4 C           2.2600    4.8631    0.6556 C.ar    1  UNL1        0.0000
      5 C           1.6653    5.4783   -0.4313 C.ar    1  UNL1        0.0000
      6 C           1.8575    4.9674   -1.7042 C.ar    1  UNL1        0.0000
      7 C           2.6508    3.8460   -1.8798 C.ar    1  UNL1        0.0000
      8 C           3.2425    3.2372   -0.7870 C.ar    1  UNL1        0.0000
      9 C           4.2097    1.0943    1.6554 C.ar    1  UNL1        0.0000
     10 C           3.3055    0.2981    0.9586 C.ar    1  UNL1        0.0000
     11 C           3.5831   -1.0285    0.6803 C.ar    1  UNL1        0.0000
     12 C           4.7803   -1.5882    1.0929 C.ar    1  UNL1        0.0000
     13 C           5.6978   -0.8084    1.7763 C.ar    1  UNL1        0.0000
     14 C           5.4139    0.5179    2.0485 C.ar    1  UNL1        0.0000
     15 C           5.5743    3.7372    2.2751 C.ar    1  UNL1        0.0000
     16 C           6.3366    4.1884    1.2024 C.ar    1  UNL1        0.0000
     17 C           7.5897    4.7406    1.4004 C.ar    1  UNL1        0.0000
     18 C           8.1060    4.8493    2.6808 C.ar    1  UNL1        0.0000
     19 C           7.3612    4.4045    3.7604 C.ar    1  UNL1        0.0000
     20 C           6.1090    3.8548    3.5546 C.ar    1  UNL1        0.0000
     21 H           2.1219    5.2699    1.6513 H       1  UNL1        0.0000
     22 H           1.0556    6.3594   -0.2869 H       1  UNL1        0.0000
     23 H           1.3943    5.4432   -2.5567 H       1  UNL1        0.0000
     24 H           2.8084    3.4462   -2.8716 H       1  UNL1        0.0000
     25 H           3.8599    2.3617   -0.9310 H       1  UNL1        0.0000
     26 H           2.3707    0.7252    0.6289 H       1  UNL1        0.0000
     27 H           2.8652   -1.6281    0.1380 H       1  UNL1        0.0000
     28 H           4.9997   -2.6242    0.8775 H       1  UNL1        0.0000
     29 H           6.6394   -1.2353    2.0922 H       1  UNL1        0.0000
     30 H           6.1394    1.1240    2.5711 H       1  UNL1        0.0000
     31 H           5.9377    4.1088    0.2009 H       1  UNL1        0.0000
     32 H           8.1666    5.0877    0.5547 H       1  UNL1        0.0000
     33 H           9.0846    5.2802    2.8361 H       1  UNL1        0.0000
     34 H           7.7553    4.4829    4.7636 H       1  UNL1        0.0000
     35 H           5.5250    3.5049    4.3944 H       1  UNL1        0.0000
@<TRIPOS>BOND
     1    24     7    1
     2    23     6    1
     3     7     6   ar
     4     7     8   ar
     5     6     5   ar
     6    25     8    1
     7     8     3   ar
     8     5    22    1
     9     5     4   ar
    10    27    11    1
    11    31    16    1
    12     3     4   ar
    13     3     1    1
    14    32    17    1
    15    26    10    1
    16     4    21    1
    17    11    10   ar
    18    11    12   ar
    19    28    12    1
    20    10     9   ar
    21    12    13   ar
    22    16    17   ar
    23    16    15   ar
    24    17    18   ar
    25     9     1    1
    26     9    14   ar
    27    13    14   ar
    28    13    29    1
    29     1    15    1
    30     1     2    1
    31    14    30    1
    32    15    20   ar
    33    18    33    1
    34    18    19   ar
    35    20    19   ar
    36    20    35    1
    37    19    34    1
