@<TRIPOS>MOLECULE
1
 13 13 0 0 0
SMALL
GASTEIGER

@<TRIPOS>ATOM
      1 O           1.8135    2.3813    1.2218 O.3     1  UNL1       -0.3798
      2 C           0.6019    2.0455    0.5616 C.3     1  UNL1        0.0477
      3 H           0.4666    0.9663    0.6247 H       1  UNL1        0.0560
      4 H           0.6668    2.3454   -0.4949 H       1  UNL1        0.0560
      5 C          -0.4936    2.8469    1.2798 C.3     1  UNL1       -0.0274
      6 H          -0.9378    2.2494    2.0742 H       1  UNL1        0.0288
      7 H          -1.2812    3.1491    0.5931 H       1  UNL1        0.0288
      8 C           0.2725    4.0470    1.8643 C.3     1  UNL1       -0.0274
      9 H          -0.0863    4.9971    1.4741 H       1  UNL1        0.0288
     10 H           0.1915    4.0657    2.9493 H       1  UNL1        0.0288
     11 C           1.7258    3.7830    1.4414 C.3     1  UNL1        0.0477
     12 H           1.9521    4.3112    0.5034 H       1  UNL1        0.0560
     13 H           2.4623    4.0526    2.1990 H       1  UNL1        0.0560
@<TRIPOS>BOND
     1     4     2    1
     2    12    11    1
     3     2     3    1
     4     2     1    1
     5     2     5    1
     6     7     5    1
     7     1    11    1
     8     5     8    1
     9     5     6    1
    10    11     8    1
    11    11    13    1
    12     9     8    1
    13     8    10    1
