@<TRIPOS>MOLECULE
1
 52 56 0 0 0
SMALL
GASTEIGER

@<TRIPOS>ATOM
      1 O          -0.0839    3.2548    3.8400 O.3     1  UNL1       -0.2866
      2 C          -0.4975    3.1783    2.5840 C.ar    1  UNL1        0.1954
      3 C          -1.0589    1.9827    2.0976 C.ar    1  UNL1        0.0371
      4 C          -1.4474    1.8900    0.7604 C.ar    1  UNL1       -0.0059
      5 C          -1.2528    2.9731   -0.0865 C.ar    1  UNL1       -0.0449
      6 C          -0.7020    4.1591    0.3780 C.ar    1  UNL1       -0.0059
      7 C          -0.3406    4.2772    1.7217 C.ar    1  UNL1        0.0371
      8 C          -1.2497    0.8435    3.0169 C.ar    1  UNL1       -0.0136
      9 C          -0.1550    0.2255    3.6131 C.ar    1  UNL1       -0.0539
     10 C          -0.3464   -0.8734    4.4334 C.ar    1  UNL1       -0.0612
     11 C          -1.6223   -1.3504    4.6765 C.ar    1  UNL1       -0.0617
     12 C          -2.7156   -0.7291    4.0966 C.ar    1  UNL1       -0.0612
     13 C          -2.5309    0.3599    3.2673 C.ar    1  UNL1       -0.0539
     14 C          -2.0437    0.6521    0.2244 C.ar    1  UNL1       -0.0172
     15 C          -3.2406    0.7121   -0.4830 C.ar    1  UNL1       -0.0540
     16 C          -3.8143   -0.4385   -0.9919 C.ar    1  UNL1       -0.0612
     17 C          -3.1947   -1.6630   -0.8094 C.ar    1  UNL1       -0.0617
     18 C          -1.9953   -1.7296   -0.1204 C.ar    1  UNL1       -0.0612
     19 C          -1.4225   -0.5815    0.3937 C.ar    1  UNL1       -0.0540
     20 C          -0.4987    5.2766   -0.5649 C.ar    1  UNL1       -0.0172
     21 C          -1.0462    6.5341   -0.3336 C.ar    1  UNL1       -0.0540
     22 C          -0.8401    7.5630   -1.2336 C.ar    1  UNL1       -0.0612
     23 C          -0.0857    7.3510   -2.3752 C.ar    1  UNL1       -0.0617
     24 C           0.4534    6.0993   -2.6190 C.ar    1  UNL1       -0.0612
     25 C           0.2442    5.0675   -1.7227 C.ar    1  UNL1       -0.0540
     26 C           0.2132    5.5578    2.2134 C.ar    1  UNL1       -0.0136
     27 C           1.4466    6.0122    1.7571 C.ar    1  UNL1       -0.0539
     28 C           1.8918    7.2752    2.0994 C.ar    1  UNL1       -0.0612
     29 C           1.1122    8.0974    2.8970 C.ar    1  UNL1       -0.0617
     30 C          -0.1022    7.6408    3.3790 C.ar    1  UNL1       -0.0612
     31 C          -0.5506    6.3752    3.0411 C.ar    1  UNL1       -0.0539
     32 H          -1.5336    2.8915   -1.1264 H       1  UNL1        0.0630
     33 H           0.8501    0.5906    3.4106 H       1  UNL1        0.0624
     34 H           0.5046   -1.3506    4.8937 H       1  UNL1        0.0618
     35 H          -1.7636   -2.2047    5.3218 H       1  UNL1        0.0618
     36 H          -3.7135   -1.0949    4.2890 H       1  UNL1        0.0618
     37 H          -3.3790    0.8473    2.8083 H       1  UNL1        0.0624
     38 H          -3.7295    1.6666   -0.6176 H       1  UNL1        0.0624
     39 H          -4.7484   -0.3797   -1.5317 H       1  UNL1        0.0618
     40 H          -3.6433   -2.5620   -1.2056 H       1  UNL1        0.0618
     41 H          -1.5029   -2.6811    0.0171 H       1  UNL1        0.0618
     42 H          -0.4817   -0.6373    0.9199 H       1  UNL1        0.0624
     43 H          -1.6446    6.7023    0.5491 H       1  UNL1        0.0624
     44 H          -1.2709    8.5351   -1.0430 H       1  UNL1        0.0618
     45 H           0.0787    8.1576   -3.0744 H       1  UNL1        0.0618
     46 H           1.0395    5.9268   -3.5100 H       1  UNL1        0.0618
     47 H           0.6718    4.0924   -1.9076 H       1  UNL1        0.0624
     48 H           2.0452    5.3761    1.1219 H       1  UNL1        0.0624
     49 H           2.8453    7.6245    1.7308 H       1  UNL1        0.0618
     50 H           1.4495    9.0946    3.1402 H       1  UNL1        0.0618
     51 H          -0.7100    8.2758    4.0078 H       1  UNL1        0.0618
     52 H          -1.5176    6.0301    3.3840 H       1  UNL1        0.0624
@<TRIPOS>BOND
     1    46    24    1
     2    45    23    1
     3    24    23   ar
     4    24    25   ar
     5    23    22   ar
     6    47    25    1
     7    25    20   ar
     8    39    16    1
     9    22    44    1
    10    22    21   ar
    11    40    17    1
    12    32     5    1
    13    16    17   ar
    14    16    15   ar
    15    17    18   ar
    16    38    15    1
    17    20    21   ar
    18    20     6    1
    19    15    14   ar
    20    21    43    1
    21    18    41    1
    22    18    19   ar
    23     5     6   ar
    24     5     4   ar
    25    14    19   ar
    26    14     4    1
    27     6     7   ar
    28    19    42    1
    29     4     3   ar
    30    48    27    1
    31     7    26    1
    32     7     2   ar
    33    49    28    1
    34    27    28   ar
    35    27    26   ar
    36     3     2   ar
    37     3     8    1
    38    28    29   ar
    39    26    31   ar
    40     2     1    1
    41    37    13    1
    42    29    50    1
    43    29    30   ar
    44     8    13   ar
    45     8     9   ar
    46    31    30   ar
    47    31    52    1
    48    13    12   ar
    49    30    51    1
    50    33     9    1
    51     9    10   ar
    52    12    36    1
    53    12    11   ar
    54    10    11   ar
    55    10    34    1
    56    11    35    1
