@<TRIPOS>MOLECULE
1
 32 34 0 0 0
SMALL
GASTEIGER

@<TRIPOS>ATOM
      1 O           4.3774    4.4521    4.5641 O.3     1  UNL1       -0.2866
      2 C           4.8134    5.5519    5.1672 C.ar    1  UNL1        0.1943
      3 C           4.6847    6.8083    4.5461 C.ar    1  UNL1        0.0294
      4 C           5.0030    7.9564    5.2624 C.ar    1  UNL1       -0.0503
      5 C           5.4620    7.8799    6.5642 C.ar    1  UNL1       -0.0604
      6 C           5.6420    6.6431    7.1571 C.ar    1  UNL1       -0.0503
      7 C           5.3380    5.4749    6.4719 C.ar    1  UNL1        0.0294
      8 C           4.2644    6.9076    3.1395 C.ar    1  UNL1       -0.0142
      9 C           4.8621    6.1002    2.1716 C.ar    1  UNL1       -0.0539
     10 C           4.5445    6.2635    0.8354 C.ar    1  UNL1       -0.0612
     11 C           3.6159    7.2173    0.4492 C.ar    1  UNL1       -0.0617
     12 C           2.9937    7.9997    1.4079 C.ar    1  UNL1       -0.0612
     13 C           3.3191    7.8505    2.7434 C.ar    1  UNL1       -0.0539
     14 C           5.5824    4.1565    7.0802 C.ar    1  UNL1       -0.0142
     15 C           5.1201    3.8606    8.3584 C.ar    1  UNL1       -0.0539
     16 C           5.3697    2.6226    8.9212 C.ar    1  UNL1       -0.0612
     17 C           6.0896    1.6711    8.2194 C.ar    1  UNL1       -0.0617
     18 C           6.5594    1.9589    6.9489 C.ar    1  UNL1       -0.0612
     19 C           6.3072    3.1935    6.3795 C.ar    1  UNL1       -0.0539
     20 H           4.9062    8.9164    4.7772 H       1  UNL1        0.0625
     21 H           5.7007    8.7812    7.1078 H       1  UNL1        0.0618
     22 H           6.0408    6.5709    8.1580 H       1  UNL1        0.0625
     23 H           5.6085    5.3732    2.4626 H       1  UNL1        0.0624
     24 H           5.0341    5.6511    0.0922 H       1  UNL1        0.0618
     25 H           3.3809    7.3560   -0.5964 H       1  UNL1        0.0618
     26 H           2.2606    8.7359    1.1122 H       1  UNL1        0.0618
     27 H           2.8359    8.4642    3.4898 H       1  UNL1        0.0624
     28 H           4.5473    4.5997    8.9001 H       1  UNL1        0.0624
     29 H           4.9986    2.3985    9.9107 H       1  UNL1        0.0618
     30 H           6.2852    0.7066    8.6626 H       1  UNL1        0.0618
     31 H           7.1219    1.2207    6.3971 H       1  UNL1        0.0618
     32 H           6.6957    3.4260    5.3961 H       1  UNL1        0.0624
@<TRIPOS>BOND
     1    25    11    1
     2    24    10    1
     3    11    10   ar
     4    11    12   ar
     5    10     9   ar
     6    26    12    1
     7    12    13   ar
     8     9    23    1
     9     9     8   ar
    10    13     8   ar
    11    13    27    1
    12     8     3    1
    13     3     2   ar
    14     3     4   ar
    15     1     2    1
    16    20     4    1
    17     2     7   ar
    18     4     5   ar
    19    32    19    1
    20    19    18   ar
    21    19    14   ar
    22    31    18    1
    23     7    14    1
    24     7     6   ar
    25     5    21    1
    26     5     6   ar
    27    18    17   ar
    28    14    15   ar
    29     6    22    1
    30    17    30    1
    31    17    16   ar
    32    15    28    1
    33    15    16   ar
    34    16    29    1
