@<TRIPOS>MOLECULE
1
 52 56 0 0 0
SMALL
GASTEIGER

@<TRIPOS>ATOM
      1 O           2.1686    3.3958    6.5648 O.3     1  UNL1       -0.2866
      2 C           3.0507    3.3566    7.5449 C.ar    1  UNL1        0.1954
      3 C           3.5527    2.1149    7.9801 C.ar    1  UNL1        0.0371
      4 C           4.3877    2.0709    9.0993 C.ar    1  UNL1       -0.0059
      5 C           4.7105    3.2474    9.7635 C.ar    1  UNL1       -0.0449
      6 C           4.2712    4.4845    9.3081 C.ar    1  UNL1       -0.0059
      7 C           3.4414    4.5475    8.1876 C.ar    1  UNL1        0.0371
      8 C           3.2054    0.8955    7.2270 C.ar    1  UNL1       -0.0136
      9 C           2.6842   -0.2257    7.8667 C.ar    1  UNL1       -0.0539
     10 C           2.4666   -1.3930    7.1601 C.ar    1  UNL1       -0.0612
     11 C           2.7590   -1.4549    5.8071 C.ar    1  UNL1       -0.0617
     12 C           3.2385   -0.3314    5.1530 C.ar    1  UNL1       -0.0612
     13 C           3.4601    0.8404    5.8560 C.ar    1  UNL1       -0.0539
     14 C           4.9685    0.7998    9.5704 C.ar    1  UNL1       -0.0172
     15 C           5.6655   -0.0331    8.6998 C.ar    1  UNL1       -0.0540
     16 C           6.2174   -1.2156    9.1549 C.ar    1  UNL1       -0.0612
     17 C           6.0810   -1.5836   10.4831 C.ar    1  UNL1       -0.0617
     18 C           5.3981   -0.7563   11.3582 C.ar    1  UNL1       -0.0612
     19 C           4.8500    0.4304   10.9065 C.ar    1  UNL1       -0.0540
     20 C           4.7207    5.7077    9.9969 C.ar    1  UNL1       -0.0172
     21 C           5.2890    6.7616    9.2869 C.ar    1  UNL1       -0.0540
     22 C           5.7183    7.8979    9.9461 C.ar    1  UNL1       -0.0612
     23 C           5.5861    7.9993   11.3211 C.ar    1  UNL1       -0.0617
     24 C           5.0294    6.9527   12.0363 C.ar    1  UNL1       -0.0612
     25 C           4.6039    5.8126   11.3797 C.ar    1  UNL1       -0.0540
     26 C           2.9435    5.8223    7.6404 C.ar    1  UNL1       -0.0136
     27 C           2.2729    6.7435    8.4406 C.ar    1  UNL1       -0.0539
     28 C           1.8081    7.9281    7.8994 C.ar    1  UNL1       -0.0612
     29 C           2.0098    8.2080    6.5581 C.ar    1  UNL1       -0.0617
     30 C           2.6792    7.2985    5.7560 C.ar    1  UNL1       -0.0612
     31 C           3.1386    6.1076    6.2887 C.ar    1  UNL1       -0.0539
     32 H           5.3714    3.2043   10.6169 H       1  UNL1        0.0630
     33 H           2.4590   -0.1803    8.9220 H       1  UNL1        0.0624
     34 H           2.0750   -2.2617    7.6690 H       1  UNL1        0.0618
     35 H           2.6235   -2.3807    5.2652 H       1  UNL1        0.0618
     36 H           3.4647   -0.3714    4.0965 H       1  UNL1        0.0618
     37 H           3.8983    1.6963    5.3541 H       1  UNL1        0.0624
     38 H           5.7828    0.2555    7.6659 H       1  UNL1        0.0624
     39 H           6.7570   -1.8529    8.4698 H       1  UNL1        0.0618
     40 H           6.5084   -2.5106   10.8358 H       1  UNL1        0.0618
     41 H           5.2915   -1.0367   12.3962 H       1  UNL1        0.0618
     42 H           4.3081    1.0708   11.5879 H       1  UNL1        0.0624
     43 H           5.4044    6.6818    8.2163 H       1  UNL1        0.0624
     44 H           6.1595    8.7082    9.3844 H       1  UNL1        0.0618
     45 H           5.9188    8.8897   11.8339 H       1  UNL1        0.0618
     46 H           4.9262    7.0250   13.1093 H       1  UNL1        0.0618
     47 H           4.1596    5.0006   11.9376 H       1  UNL1        0.0624
     48 H           2.1126    6.5228    9.4860 H       1  UNL1        0.0624
     49 H           1.2876    8.6355    8.5285 H       1  UNL1        0.0618
     50 H           1.6492    9.1358    6.1393 H       1  UNL1        0.0618
     51 H           2.8498    7.5134    4.7124 H       1  UNL1        0.0618
     52 H           3.6856    5.4112    5.6630 H       1  UNL1        0.0624
@<TRIPOS>BOND
     1    36    12    1
     2    51    30    1
     3    12    11   ar
     4    12    13   ar
     5    35    11    1
     6    37    13    1
     7    52    31    1
     8    30    31   ar
     9    30    29   ar
    10    11    10   ar
    11    13     8   ar
    12    50    29    1
    13    31    26   ar
    14    29    28   ar
    15     1     2    1
    16    10    34    1
    17    10     9   ar
    18     8     9   ar
    19     8     3    1
    20     2     3   ar
    21     2     7   ar
    22    26     7    1
    23    26    27   ar
    24    38    15    1
    25     9    33    1
    26    28    27   ar
    27    28    49    1
    28     3     4   ar
    29     7     6   ar
    30    43    21    1
    31    27    48    1
    32    39    16    1
    33    15    16   ar
    34    15    14   ar
    35     4    14    1
    36     4     5   ar
    37    16    17   ar
    38    21    22   ar
    39    21    20   ar
    40     6     5   ar
    41     6    20    1
    42    44    22    1
    43    14    19   ar
    44     5    32    1
    45    22    23   ar
    46    20    25   ar
    47    17    40    1
    48    17    18   ar
    49    19    18   ar
    50    19    42    1
    51    23    45    1
    52    23    24   ar
    53    18    41    1
    54    25    47    1
    55    25    24   ar
    56    24    46    1
