@<TRIPOS>MOLECULE
1
 32 34 0 0 0
SMALL
GASTEIGER

@<TRIPOS>ATOM
      1 O           3.0818    1.5025    2.9872 O.3     1  UNL1       -0.2866
      2 C           3.2313    0.4759    2.1501 C.ar    1  UNL1        0.1943
      3 C           3.9251   -0.6745    2.5655 C.ar    1  UNL1        0.0294
      4 C           4.1475   -1.7090    1.6660 C.ar    1  UNL1       -0.0503
      5 C           3.6594   -1.6469    0.3745 C.ar    1  UNL1       -0.0604
      6 C           2.9514   -0.5311   -0.0306 C.ar    1  UNL1       -0.0503
      7 C           2.7460    0.5382    0.8315 C.ar    1  UNL1        0.0294
      8 C           4.4047   -0.8216    3.9538 C.ar    1  UNL1       -0.0142
      9 C           3.4989   -0.8517    5.0093 C.ar    1  UNL1       -0.0539
     10 C           3.9369   -1.1035    6.2975 C.ar    1  UNL1       -0.0612
     11 C           5.2809   -1.3205    6.5440 C.ar    1  UNL1       -0.0617
     12 C           6.1913   -1.2716    5.5009 C.ar    1  UNL1       -0.0612
     13 C           5.7572   -1.0273    4.2112 C.ar    1  UNL1       -0.0539
     14 C           2.0230    1.7271    0.3415 C.ar    1  UNL1       -0.0142
     15 C           2.6371    2.9756    0.3126 C.ar    1  UNL1       -0.0539
     16 C           1.9554    4.0705   -0.1918 C.ar    1  UNL1       -0.0612
     17 C           0.6601    3.9341   -0.6608 C.ar    1  UNL1       -0.0617
     18 C           0.0440    2.6940   -0.6338 C.ar    1  UNL1       -0.0612
     19 C           0.7238    1.5957   -0.1410 C.ar    1  UNL1       -0.0539
     20 H           4.6959   -2.5768    2.0023 H       1  UNL1        0.0625
     21 H           3.8280   -2.4633   -0.3110 H       1  UNL1        0.0618
     22 H           2.5667   -0.4641   -1.0378 H       1  UNL1        0.0625
     23 H           2.4466   -0.6996    4.8114 H       1  UNL1        0.0624
     24 H           3.2253   -1.1313    7.1091 H       1  UNL1        0.0618
     25 H           5.6188   -1.5321    7.5476 H       1  UNL1        0.0618
     26 H           7.2423   -1.4374    5.6914 H       1  UNL1        0.0618
     27 H           6.4623   -0.9925    3.3932 H       1  UNL1        0.0624
     28 H           3.6565    3.0816    0.6660 H       1  UNL1        0.0624
     29 H           2.4362    5.0354   -0.2124 H       1  UNL1        0.0618
     30 H           0.1323    4.7926   -1.0489 H       1  UNL1        0.0618
     31 H          -0.9660    2.5820   -1.0003 H       1  UNL1        0.0618
     32 H           0.2483    0.6256   -0.1187 H       1  UNL1        0.0624
@<TRIPOS>BOND
     1    30    17    1
     2    22     6    1
     3    31    18    1
     4    17    18   ar
     5    17    16   ar
     6    18    19   ar
     7    21     5    1
     8    29    16    1
     9    16    15   ar
    10    19    32    1
    11    19    14   ar
    12     6     5   ar
    13     6     7   ar
    14    15    14   ar
    15    15    28    1
    16    14     7    1
    17     5     4   ar
    18     7     2   ar
    19     4    20    1
    20     4     3   ar
    21     2     3   ar
    22     2     1    1
    23     3     8    1
    24    27    13    1
    25     8    13   ar
    26     8     9   ar
    27    13    12   ar
    28    23     9    1
    29     9    10   ar
    30    12    26    1
    31    12    11   ar
    32    10    11   ar
    33    10    24    1
    34    11    25    1
