@<TRIPOS>MOLECULE
1
 32 34 0 0 0
SMALL
GASTEIGER

@<TRIPOS>ATOM
      1 O           1.4973    0.0267    1.2107 O.3     1  UNL1       -0.2866
      2 C           2.4775    0.1097    2.1008 C.ar    1  UNL1        0.1943
      3 C           3.6255    0.8776    1.8179 C.ar    1  UNL1        0.0294
      4 C           4.5883    1.0723    2.7990 C.ar    1  UNL1       -0.0503
      5 C           4.4518    0.5070    4.0532 C.ar    1  UNL1       -0.0604
      6 C           3.3441   -0.2720    4.3300 C.ar    1  UNL1       -0.0503
      7 C           2.3594   -0.4869    3.3737 C.ar    1  UNL1        0.0294
      8 C           3.8144    1.4699    0.4825 C.ar    1  UNL1       -0.0142
      9 C           4.1070    2.8233    0.3434 C.ar    1  UNL1       -0.0539
     10 C           4.3200    3.3668   -0.9093 C.ar    1  UNL1       -0.0612
     11 C           4.2686    2.5622   -2.0349 C.ar    1  UNL1       -0.0617
     12 C           3.9893    1.2125   -1.9049 C.ar    1  UNL1       -0.0612
     13 C           3.7479    0.6706   -0.6552 C.ar    1  UNL1       -0.0539
     14 C           1.1950   -1.3239    3.7095 C.ar    1  UNL1       -0.0142
     15 C           0.4518   -1.0707    4.8597 C.ar    1  UNL1       -0.0539
     16 C          -0.6378   -1.8609    5.1775 C.ar    1  UNL1       -0.0612
     17 C          -0.9953   -2.9181    4.3570 C.ar    1  UNL1       -0.0617
     18 C          -0.2515   -3.1887    3.2207 C.ar    1  UNL1       -0.0612
     19 C           0.8364   -2.3975    2.8993 C.ar    1  UNL1       -0.0539
     20 H           5.4585    1.6662    2.5609 H       1  UNL1        0.0625
     21 H           5.2075    0.6657    4.8073 H       1  UNL1        0.0618
     22 H           3.2355   -0.7375    5.2989 H       1  UNL1        0.0625
     23 H           4.1465    3.4501    1.2227 H       1  UNL1        0.0624
     24 H           4.5300    4.4219   -1.0082 H       1  UNL1        0.0618
     25 H           4.4435    2.9870   -3.0124 H       1  UNL1        0.0618
     26 H           3.9623    0.5786   -2.7787 H       1  UNL1        0.0618
     27 H           3.5341   -0.3850   -0.5495 H       1  UNL1        0.0624
     28 H           0.7246   -0.2415    5.4962 H       1  UNL1        0.0624
     29 H          -1.2110   -1.6520    6.0692 H       1  UNL1        0.0618
     30 H          -1.8467   -3.5330    4.6080 H       1  UNL1        0.0618
     31 H          -0.5159   -4.0183    2.5827 H       1  UNL1        0.0618
     32 H           1.4331   -2.6263    2.0297 H       1  UNL1        0.0624
@<TRIPOS>BOND
     1    25    11    1
     2    26    12    1
     3    11    12   ar
     4    11    10   ar
     5    12    13   ar
     6    24    10    1
     7    10     9   ar
     8    13    27    1
     9    13     8   ar
    10     9     8   ar
    11     9    23    1
    12     8     3    1
    13     1     2    1
    14     3     2   ar
    15     3     4   ar
    16    32    19    1
    17     2     7   ar
    18    20     4    1
    19    31    18    1
    20     4     5   ar
    21    19    18   ar
    22    19    14   ar
    23    18    17   ar
    24     7    14    1
    25     7     6   ar
    26    14    15   ar
    27     5     6   ar
    28     5    21    1
    29     6    22    1
    30    17    30    1
    31    17    16   ar
    32    15    16   ar
    33    15    28    1
    34    16    29    1
