@<TRIPOS>MOLECULE
1
 32 34 0 0 0
SMALL
GASTEIGER

@<TRIPOS>ATOM
      1 O          -1.3315    0.0573   -1.0478 O.3     1  UNL1       -0.2866
      2 C          -2.1432   -0.2681   -2.0488 C.ar    1  UNL1        0.1943
      3 C          -2.8161   -1.5079   -2.0602 C.ar    1  UNL1        0.0294
      4 C          -3.4990   -1.9131   -3.2004 C.ar    1  UNL1       -0.0503
      5 C          -3.5615   -1.1058   -4.3206 C.ar    1  UNL1       -0.0604
      6 C          -2.9717    0.1437   -4.2883 C.ar    1  UNL1       -0.0503
      7 C          -2.2785    0.5825   -3.1670 C.ar    1  UNL1        0.0294
      8 C          -2.8572   -2.3697   -0.8640 C.ar    1  UNL1       -0.0142
      9 C          -2.4674   -3.7052   -0.9190 C.ar    1  UNL1       -0.0539
     10 C          -2.5711   -4.5111    0.2000 C.ar    1  UNL1       -0.0612
     11 C          -3.0705   -3.9983    1.3858 C.ar    1  UNL1       -0.0617
     12 C          -3.4756   -2.6761    1.4460 C.ar    1  UNL1       -0.0612
     13 C          -3.3768   -1.8703    0.3261 C.ar    1  UNL1       -0.0539
     14 C          -1.7349    1.9524   -3.1465 C.ar    1  UNL1       -0.0142
     15 C          -0.9738    2.4402   -4.2052 C.ar    1  UNL1       -0.0539
     16 C          -0.5172    3.7445   -4.1964 C.ar    1  UNL1       -0.0612
     17 C          -0.8356    4.5862   -3.1444 C.ar    1  UNL1       -0.0617
     18 C          -1.6071    4.1151   -2.0966 C.ar    1  UNL1       -0.0612
     19 C          -2.0460    2.8040   -2.0909 C.ar    1  UNL1       -0.0539
     20 H          -3.9985   -2.8712   -3.1911 H       1  UNL1        0.0625
     21 H          -4.0892   -1.4370   -5.2019 H       1  UNL1        0.0618
     22 H          -3.0581    0.8073   -5.1363 H       1  UNL1        0.0625
     23 H          -2.0796   -4.1081   -1.8421 H       1  UNL1        0.0624
     24 H          -2.2651   -5.5461    0.1448 H       1  UNL1        0.0618
     25 H          -3.1586   -4.6326    2.2555 H       1  UNL1        0.0618
     26 H          -3.8806   -2.2749    2.3632 H       1  UNL1        0.0618
     27 H          -3.7462   -0.8550    0.3490 H       1  UNL1        0.0624
     28 H          -0.7275    1.7885   -5.0314 H       1  UNL1        0.0624
     29 H           0.0864    4.1071   -5.0159 H       1  UNL1        0.0618
     30 H          -0.4833    5.6071   -3.1412 H       1  UNL1        0.0618
     31 H          -1.8668    4.7736   -1.2806 H       1  UNL1        0.0618
     32 H          -2.6528    2.4349   -1.2754 H       1  UNL1        0.0624
@<TRIPOS>BOND
     1    21     5    1
     2    22     6    1
     3    28    15    1
     4    29    16    1
     5     5     6   ar
     6     5     4   ar
     7     6     7   ar
     8    15    16   ar
     9    15    14   ar
    10    16    17   ar
    11     4    20    1
    12     4     3   ar
    13     7    14    1
    14     7     2   ar
    15    14    19   ar
    16    17    30    1
    17    17    18   ar
    18    18    19   ar
    19    18    31    1
    20    19    32    1
    21     3     2   ar
    22     3     8    1
    23     2     1    1
    24    23     9    1
    25     9     8   ar
    26     9    10   ar
    27     8    13   ar
    28    24    10    1
    29    10    11   ar
    30    13    27    1
    31    13    12   ar
    32    11    12   ar
    33    11    25    1
    34    12    26    1
