@<TRIPOS>MOLECULE
1
 52 56 0 0 0
SMALL
GASTEIGER

@<TRIPOS>ATOM
      1 O           2.3697    2.2538   10.5257 O.3     1  UNL1       -0.2866
      2 C           2.4492    2.0387   11.8288 C.ar    1  UNL1        0.1954
      3 C           2.8463    0.7714   12.3156 C.ar    1  UNL1        0.0371
      4 C           2.7335    0.4797   13.6790 C.ar    1  UNL1       -0.0059
      5 C           2.2090    1.4256   14.5483 C.ar    1  UNL1       -0.0449
      6 C           1.9029    2.7033   14.1044 C.ar    1  UNL1       -0.0059
      7 C           2.0567    3.0309   12.7565 C.ar    1  UNL1        0.0371
      8 C           3.4078   -0.2540   11.4132 C.ar    1  UNL1       -0.0136
      9 C           2.9210   -1.5614   11.4197 C.ar    1  UNL1       -0.0539
     10 C           3.5462   -2.5499   10.6848 C.ar    1  UNL1       -0.0612
     11 C           4.6717   -2.2532    9.9337 C.ar    1  UNL1       -0.0617
     12 C           5.1468   -0.9542    9.8978 C.ar    1  UNL1       -0.0612
     13 C           4.5183    0.0406   10.6276 C.ar    1  UNL1       -0.0539
     14 C           3.1820   -0.8108   14.2390 C.ar    1  UNL1       -0.0172
     15 C           4.4804   -1.2673   14.0312 C.ar    1  UNL1       -0.0540
     16 C           4.8982   -2.4647   14.5801 C.ar    1  UNL1       -0.0612
     17 C           4.0272   -3.2238   15.3439 C.ar    1  UNL1       -0.0617
     18 C           2.7378   -2.7719   15.5663 C.ar    1  UNL1       -0.0612
     19 C           2.3199   -1.5706   15.0234 C.ar    1  UNL1       -0.0540
     20 C           1.4024    3.6944   15.0788 C.ar    1  UNL1       -0.0172
     21 C           2.0702    4.8909   15.3151 C.ar    1  UNL1       -0.0540
     22 C           1.5777    5.7958   16.2370 C.ar    1  UNL1       -0.0612
     23 C           0.4139    5.5189   16.9343 C.ar    1  UNL1       -0.0617
     24 C          -0.2514    4.3251   16.7129 C.ar    1  UNL1       -0.0612
     25 C           0.2423    3.4167   15.7948 C.ar    1  UNL1       -0.0540
     26 C           1.8461    4.4414   12.3535 C.ar    1  UNL1       -0.0136
     27 C           0.6008    5.0595   12.4117 C.ar    1  UNL1       -0.0539
     28 C           0.4693    6.3999   12.0955 C.ar    1  UNL1       -0.0612
     29 C           1.5782    7.1486   11.7409 C.ar    1  UNL1       -0.0617
     30 C           2.8276    6.5526   11.7212 C.ar    1  UNL1       -0.0612
     31 C           2.9602    5.2107   12.0281 C.ar    1  UNL1       -0.0539
     32 H           2.1044    1.1879   15.5967 H       1  UNL1        0.0630
     33 H           2.0556   -1.8064   12.0142 H       1  UNL1        0.0624
     34 H           3.1616   -3.5594   10.7101 H       1  UNL1        0.0618
     35 H           5.1796   -3.0320    9.3833 H       1  UNL1        0.0618
     36 H           6.0200   -0.7175    9.3089 H       1  UNL1        0.0618
     37 H           4.9146    1.0462   10.6249 H       1  UNL1        0.0624
     38 H           5.1648   -0.6742   13.4430 H       1  UNL1        0.0624
     39 H           5.9087   -2.8074   14.4116 H       1  UNL1        0.0618
     40 H           4.3536   -4.1622   15.7675 H       1  UNL1        0.0618
     41 H           2.0549   -3.3571   16.1651 H       1  UNL1        0.0618
     42 H           1.3101   -1.2245   15.1926 H       1  UNL1        0.0624
     43 H           2.9832    5.1071   14.7814 H       1  UNL1        0.0624
     44 H           2.1054    6.7219   16.4123 H       1  UNL1        0.0618
     45 H           0.0287    6.2294   17.6508 H       1  UNL1        0.0618
     46 H          -1.1574    4.1014   17.2573 H       1  UNL1        0.0618
     47 H          -0.2795    2.4870   15.6161 H       1  UNL1        0.0624
     48 H          -0.2673    4.4950   12.7125 H       1  UNL1        0.0624
     49 H          -0.5050    6.8644   12.1357 H       1  UNL1        0.0618
     50 H           1.4721    8.1957   11.4985 H       1  UNL1        0.0618
     51 H           3.7050    7.1354   11.4810 H       1  UNL1        0.0618
     52 H           3.9390    4.7566   12.0558 H       1  UNL1        0.0624
@<TRIPOS>BOND
     1    36    12    1
     2    35    11    1
     3    12    11   ar
     4    12    13   ar
     5    11    10   ar
     6     1     2    1
     7    37    13    1
     8    13     8   ar
     9    10    34    1
    10    10     9   ar
    11     8     9   ar
    12     8     3    1
    13     9    33    1
    14    51    30    1
    15    50    29    1
    16    30    29   ar
    17    30    31   ar
    18    29    28   ar
    19     2     3   ar
    20     2     7   ar
    21    31    52    1
    22    31    26   ar
    23    28    49    1
    24    28    27   ar
    25     3     4   ar
    26    26    27   ar
    27    26     7    1
    28    27    48    1
    29     7     6   ar
    30    38    15    1
    31     4    14    1
    32     4     5   ar
    33    15    14   ar
    34    15    16   ar
    35     6     5   ar
    36     6    20    1
    37    14    19   ar
    38    39    16    1
    39     5    32    1
    40    16    17   ar
    41    43    21    1
    42    19    42    1
    43    19    18   ar
    44    20    21   ar
    45    20    25   ar
    46    21    22   ar
    47    17    18   ar
    48    17    40    1
    49    18    41    1
    50    47    25    1
    51    25    24   ar
    52    22    44    1
    53    22    23   ar
    54    24    23   ar
    55    24    46    1
    56    23    45    1
