@<TRIPOS>MOLECULE
1
 52 56 0 0 0
SMALL
GASTEIGER

@<TRIPOS>ATOM
      1 O           0.9817    1.9345    7.2176 O.3     1  UNL1       -0.2866
      2 C           0.4318    1.6673    6.0470 C.ar    1  UNL1        0.1954
      3 C          -0.7799    2.2812    5.6525 C.ar    1  UNL1        0.0371
      4 C          -1.3038    2.0388    4.3783 C.ar    1  UNL1       -0.0059
      5 C          -0.6202    1.2243    3.4878 C.ar    1  UNL1       -0.0449
      6 C           0.5512    0.5849    3.8648 C.ar    1  UNL1       -0.0059
      7 C           1.0714    0.7874    5.1441 C.ar    1  UNL1        0.0371
      8 C          -1.5229    3.1679    6.5662 C.ar    1  UNL1       -0.0136
      9 C          -1.8647    2.7377    7.8449 C.ar    1  UNL1       -0.0539
     10 C          -2.6810    3.5142    8.6501 C.ar    1  UNL1       -0.0612
     11 C          -3.1524    4.7342    8.1971 C.ar    1  UNL1       -0.0617
     12 C          -2.7934    5.1827    6.9368 C.ar    1  UNL1       -0.0612
     13 C          -1.9836    4.4082    6.1281 C.ar    1  UNL1       -0.0539
     14 C          -2.6090    2.5835    3.9553 C.ar    1  UNL1       -0.0172
     15 C          -3.7547    2.3621    4.7142 C.ar    1  UNL1       -0.0540
     16 C          -4.9784    2.8456    4.2920 C.ar    1  UNL1       -0.0612
     17 C          -5.0770    3.5559    3.1071 C.ar    1  UNL1       -0.0617
     18 C          -3.9450    3.7711    2.3399 C.ar    1  UNL1       -0.0612
     19 C          -2.7204    3.2829    2.7578 C.ar    1  UNL1       -0.0540
     20 C           1.2038   -0.3251    2.9034 C.ar    1  UNL1       -0.0172
     21 C           1.5235    0.1318    1.6286 C.ar    1  UNL1       -0.0540
     22 C           2.1252   -0.7086    0.7102 C.ar    1  UNL1       -0.0612
     23 C           2.4064   -2.0209    1.0499 C.ar    1  UNL1       -0.0617
     24 C           2.0767   -2.4889    2.3108 C.ar    1  UNL1       -0.0612
     25 C           1.4794   -1.6489    3.2316 C.ar    1  UNL1       -0.0540
     26 C           2.3012    0.0634    5.5272 C.ar    1  UNL1       -0.0136
     27 C           3.4816    0.2463    4.8102 C.ar    1  UNL1       -0.0539
     28 C           4.6120   -0.4838    5.1255 C.ar    1  UNL1       -0.0612
     29 C           4.5758   -1.4147    6.1505 C.ar    1  UNL1       -0.0617
     30 C           3.4044   -1.6099    6.8621 C.ar    1  UNL1       -0.0612
     31 C           2.2746   -0.8712    6.5582 C.ar    1  UNL1       -0.0539
     32 H          -1.0374    1.0369    2.5094 H       1  UNL1        0.0630
     33 H          -1.5211    1.7727    8.1910 H       1  UNL1        0.0624
     34 H          -2.9620    3.1560    9.6286 H       1  UNL1        0.0618
     35 H          -3.7980    5.3333    8.8221 H       1  UNL1        0.0618
     36 H          -3.1578    6.1343    6.5772 H       1  UNL1        0.0618
     37 H          -1.7099    4.7644    5.1460 H       1  UNL1        0.0624
     38 H          -3.6826    1.8012    5.6341 H       1  UNL1        0.0624
     39 H          -5.8601    2.6666    4.8899 H       1  UNL1        0.0618
     40 H          -6.0334    3.9370    2.7809 H       1  UNL1        0.0618
     41 H          -4.0164    4.3206    1.4123 H       1  UNL1        0.0618
     42 H          -1.8358    3.4583    2.1620 H       1  UNL1        0.0624
     43 H           1.3112    1.1585    1.3660 H       1  UNL1        0.0624
     44 H           2.3756   -0.3389   -0.2737 H       1  UNL1        0.0618
     45 H           2.8771   -2.6777    0.3332 H       1  UNL1        0.0618
     46 H           2.2850   -3.5146    2.5782 H       1  UNL1        0.0618
     47 H           1.2138   -2.0223    4.2092 H       1  UNL1        0.0624
     48 H           3.5076    0.9679    4.0060 H       1  UNL1        0.0624
     49 H           5.5225   -0.3306    4.5647 H       1  UNL1        0.0618
     50 H           5.4570   -1.9919    6.3891 H       1  UNL1        0.0618
     51 H           3.3645   -2.3435    7.6534 H       1  UNL1        0.0618
     52 H           1.3508   -1.0532    7.0905 H       1  UNL1        0.0624
@<TRIPOS>BOND
     1    44    22    1
     2    45    23    1
     3    22    23   ar
     4    22    21   ar
     5    23    24   ar
     6    43    21    1
     7    41    18    1
     8    21    20   ar
     9    42    19    1
    10    24    46    1
    11    24    25   ar
    12    18    19   ar
    13    18    17   ar
    14    32     5    1
    15    19    14   ar
    16    40    17    1
    17    20    25   ar
    18    20     6    1
    19    17    16   ar
    20    25    47    1
    21     5     6   ar
    22     5     4   ar
    23     6     7   ar
    24    14     4    1
    25    14    15   ar
    26    48    27    1
    27    16    15   ar
    28    16    39    1
    29     4     3   ar
    30    49    28    1
    31    15    38    1
    32    27    28   ar
    33    27    26   ar
    34    28    29   ar
    35     7    26    1
    36     7     2   ar
    37    37    13    1
    38    26    31   ar
    39     3     2   ar
    40     3     8    1
    41     2     1    1
    42    13     8   ar
    43    13    12   ar
    44    29    50    1
    45    29    30   ar
    46    31    30   ar
    47    31    52    1
    48     8     9   ar
    49    36    12    1
    50    30    51    1
    51    12    11   ar
    52     9    33    1
    53     9    10   ar
    54    11    10   ar
    55    11    35    1
    56    10    34    1
