@<TRIPOS>MOLECULE
1
 13 13 0 0 0
SMALL
GASTEIGER

@<TRIPOS>ATOM
      1 O           9.1239    7.1362    2.6343 O.3     1  UNL1       -0.3798
      2 C           7.7810    7.0263    3.1022 C.3     1  UNL1        0.0477
      3 H           7.7025    6.1731    3.7868 H       1  UNL1        0.0560
      4 H           7.5282    7.9398    3.6390 H       1  UNL1        0.0560
      5 C           6.9394    6.7918    1.8439 C.3     1  UNL1       -0.0274
      6 H           6.0512    6.2034    2.0607 H       1  UNL1        0.0288
      7 H           6.6263    7.7427    1.4146 H       1  UNL1        0.0288
      8 C           7.9135    6.0660    0.8998 C.3     1  UNL1       -0.0274
      9 H           7.9896    6.5857   -0.0534 H       1  UNL1        0.0288
     10 H           7.6066    5.0406    0.7055 H       1  UNL1        0.0288
     11 C           9.2521    6.1044    1.6566 C.3     1  UNL1        0.0477
     12 H           9.4377    5.1482    2.1641 H       1  UNL1        0.0560
     13 H          10.1078    6.3457    1.0216 H       1  UNL1        0.0560
@<TRIPOS>BOND
     1     9     8    1
     2    10     8    1
     3     8    11    1
     4     8     5    1
     5    13    11    1
     6     7     5    1
     7    11    12    1
     8    11     1    1
     9     5     6    1
    10     5     2    1
    11     1     2    1
    12     2     4    1
    13     2     3    1
