@<TRIPOS>MOLECULE
1
 30 30 0 0 0
SMALL
GASTEIGER

@<TRIPOS>ATOM
      1 O           7.7832    2.0588   18.5684 O.3     1  UNL1       -0.2873
      2 C           8.1899    1.0955   19.3840 C.ar    1  UNL1        0.1858
      3 C           8.9053   -0.0063   18.8647 C.ar    1  UNL1        0.0021
      4 C           9.2844   -1.0306   19.7139 C.ar    1  UNL1       -0.0547
      5 C           8.9778   -0.9928   21.0627 C.ar    1  UNL1       -0.0610
      6 C           8.2778    0.0824   21.5744 C.ar    1  UNL1       -0.0547
      7 C           7.8826    1.1319   20.7605 C.ar    1  UNL1        0.0021
      8 C           9.1755   -0.0301   17.3768 C.3     1  UNL1       -0.0179
      9 C           7.8959   -0.4515   16.6420 C.3     1  UNL1       -0.0585
     10 C          10.3307   -0.9426   16.9737 C.3     1  UNL1       -0.0585
     11 C           7.0807    2.2915   21.3084 C.3     1  UNL1       -0.0179
     12 C           7.5735    2.7716   22.6738 C.3     1  UNL1       -0.0585
     13 C           5.6026    1.8931   21.3995 C.3     1  UNL1       -0.0585
     14 H           9.8244   -1.8794   19.3243 H       1  UNL1        0.0622
     15 H           9.2783   -1.8031   21.7103 H       1  UNL1        0.0618
     16 H           8.0328    0.1025   22.6256 H       1  UNL1        0.0622
     17 H           9.4285    0.9991   17.0760 H       1  UNL1        0.0345
     18 H           8.0470   -0.4294   15.5634 H       1  UNL1        0.0235
     19 H           7.6110   -1.4623   16.9319 H       1  UNL1        0.0235
     20 H           7.0751    0.2180   16.8970 H       1  UNL1        0.0235
     21 H          10.5666   -0.7926   15.9218 H       1  UNL1        0.0235
     22 H          11.2169   -0.7207   17.5626 H       1  UNL1        0.0235
     23 H          10.0693   -1.9901   17.1109 H       1  UNL1        0.0235
     24 H           7.1905    3.1260   20.5943 H       1  UNL1        0.0345
     25 H           7.1067    3.7227   22.9246 H       1  UNL1        0.0235
     26 H           7.3178    2.0577   23.4534 H       1  UNL1        0.0235
     27 H           8.6525    2.9028   22.6682 H       1  UNL1        0.0235
     28 H           4.9872    2.7470   21.6801 H       1  UNL1        0.0235
     29 H           5.4748    1.1144   22.1493 H       1  UNL1        0.0235
     30 H           5.2492    1.4968   20.4490 H       1  UNL1        0.0235
@<TRIPOS>BOND
     1    18     9    1
     2    21    10    1
     3     9    20    1
     4     9    19    1
     5     9     8    1
     6    10    23    1
     7    10     8    1
     8    10    22    1
     9    17     8    1
    10     8     3    1
    11     1     2    1
    12     3     2   ar
    13     3     4   ar
    14    14     4    1
    15     2     7   ar
    16     4     5   ar
    17    30    13    1
    18    24    11    1
    19     7    11    1
    20     7     6   ar
    21     5     6   ar
    22     5    15    1
    23    11    13    1
    24    11    12    1
    25    13    28    1
    26    13    29    1
    27     6    16    1
    28    27    12    1
    29    12    25    1
    30    12    26    1
