@<TRIPOS>MOLECULE
1
 30 30 0 0 0
SMALL
GASTEIGER

@<TRIPOS>ATOM
      1 O           1.6058    3.2872    2.6737 O.3     1  UNL1       -0.2873
      2 C           1.6606    4.3180    1.8320 C.ar    1  UNL1        0.1858
      3 C           1.2755    5.6034    2.2580 C.ar    1  UNL1        0.0021
      4 C           1.3299    6.6556    1.3579 C.ar    1  UNL1       -0.0547
      5 C           1.7546    6.4614    0.0578 C.ar    1  UNL1       -0.0610
      6 C           2.1048    5.1919   -0.3681 C.ar    1  UNL1       -0.0547
      7 C           2.0609    4.1105    0.4944 C.ar    1  UNL1        0.0021
      8 C           0.7450    5.8002    3.6602 C.3     1  UNL1       -0.0179
      9 C           2.3507    2.6968    0.0390 C.3     1  UNL1       -0.0179
     10 C          -0.7642    6.0651    3.6136 C.3     1  UNL1       -0.0585
     11 C           1.4505    6.9349    4.4014 C.3     1  UNL1       -0.0585
     12 C           1.0193    2.0029   -0.2801 C.3     1  UNL1       -0.0585
     13 C           3.2897    2.6120   -1.1620 C.3     1  UNL1       -0.0585
     14 H           1.0314    7.6434    1.6758 H       1  UNL1        0.0622
     15 H           1.7980    7.2933   -0.6295 H       1  UNL1        0.0618
     16 H           2.4100    5.0486   -1.3929 H       1  UNL1        0.0622
     17 H           0.9224    4.8717    4.2187 H       1  UNL1        0.0345
     18 H           2.8229    2.1614    0.8778 H       1  UNL1        0.0345
     19 H          -1.1673    6.1409    4.6219 H       1  UNL1        0.0235
     20 H          -0.9697    6.9960    3.0892 H       1  UNL1        0.0235
     21 H          -1.2841    5.2633    3.0926 H       1  UNL1        0.0235
     22 H           1.0675    7.0075    5.4174 H       1  UNL1        0.0235
     23 H           1.2855    7.8890    3.9069 H       1  UNL1        0.0235
     24 H           2.5202    6.7520    4.4494 H       1  UNL1        0.0235
     25 H           1.1891    0.9928   -0.6484 H       1  UNL1        0.0235
     26 H           0.4780    2.5614   -1.0426 H       1  UNL1        0.0235
     27 H           0.3978    1.9434    0.6111 H       1  UNL1        0.0235
     28 H           3.5922    1.5788   -1.3202 H       1  UNL1        0.0235
     29 H           4.1841    3.2048   -0.9929 H       1  UNL1        0.0235
     30 H           2.8003    2.9613   -2.0687 H       1  UNL1        0.0235
@<TRIPOS>BOND
     1    30    13    1
     2    16     6    1
     3    28    13    1
     4    13    29    1
     5    13     9    1
     6    26    12    1
     7    25    12    1
     8    15     5    1
     9     6     5   ar
    10     6     7   ar
    11    12     9    1
    12    12    27    1
    13     9     7    1
    14     9    18    1
    15     5     4   ar
    16     7     2   ar
    17     4    14    1
    18     4     3   ar
    19     2     3   ar
    20     2     1    1
    21     3     8    1
    22    20    10    1
    23    21    10    1
    24    10     8    1
    25    10    19    1
    26     8    17    1
    27     8    11    1
    28    23    11    1
    29    11    24    1
    30    11    22    1
