@<TRIPOS>MOLECULE
2
 35 37 0 0 0
SMALL
GASTEIGER

@<TRIPOS>ATOM
      1 SI         19.1286    9.3005    2.5432 Si      1  UNL1        0.0000
      2 O          18.5156    7.8721    2.2276 O.3     1  UNL1        0.0000
      3 C          18.2682    9.9349    4.1187 C.ar    1  UNL1        0.0000
      4 C          18.5398   11.1641    4.7061 C.ar    1  UNL1        0.0000
      5 C          17.8500   11.5935    5.8262 C.ar    1  UNL1        0.0000
      6 C          16.8694   10.7923    6.3857 C.ar    1  UNL1        0.0000
      7 C          16.5949    9.5567    5.8249 C.ar    1  UNL1        0.0000
      8 C          17.2914    9.1378    4.7066 C.ar    1  UNL1        0.0000
      9 C          21.0164    9.1106    2.7516 C.ar    1  UNL1        0.0000
     10 C          21.5844    7.8899    2.3901 C.ar    1  UNL1        0.0000
     11 C          22.9495    7.6859    2.4900 C.ar    1  UNL1        0.0000
     12 C          23.7735    8.6997    2.9512 C.ar    1  UNL1        0.0000
     13 C          23.2245    9.9192    3.3094 C.ar    1  UNL1        0.0000
     14 C          21.8590   10.1184    3.2069 C.ar    1  UNL1        0.0000
     15 C          18.8216   10.4570    1.0566 C.ar    1  UNL1        0.0000
     16 C          18.7513   11.8431    1.1364 C.ar    1  UNL1        0.0000
     17 C          18.5128   12.6156    0.0128 C.ar    1  UNL1        0.0000
     18 C          18.3386   12.0086   -1.2192 C.ar    1  UNL1        0.0000
     19 C          18.4043   10.6280   -1.3176 C.ar    1  UNL1        0.0000
     20 C          18.6464    9.8611   -0.1915 C.ar    1  UNL1        0.0000
     21 H          19.3069   11.7985    4.2856 H       1  UNL1        0.0000
     22 H          18.0753   12.5571    6.2650 H       1  UNL1        0.0000
     23 H          16.3246   11.1297    7.2576 H       1  UNL1        0.0000
     24 H          15.8329    8.9231    6.2580 H       1  UNL1        0.0000
     25 H          17.0783    8.1735    4.2664 H       1  UNL1        0.0000
     26 H          20.9353    7.0994    2.0270 H       1  UNL1        0.0000
     27 H          23.3737    6.7329    2.2062 H       1  UNL1        0.0000
     28 H          24.8413    8.5420    3.0305 H       1  UNL1        0.0000
     29 H          23.8640   10.7158    3.6681 H       1  UNL1        0.0000
     30 H          21.4412   11.0756    3.4857 H       1  UNL1        0.0000
     31 H          18.8709   12.3283    2.0944 H       1  UNL1        0.0000
     32 H          18.4574   13.6935    0.0975 H       1  UNL1        0.0000
     33 H          18.1477   12.6104   -2.0981 H       1  UNL1        0.0000
     34 H          18.2619   10.1477   -2.2756 H       1  UNL1        0.0000
     35 H          18.6849    8.7795   -0.2635 H       1  UNL1        0.0000
@<TRIPOS>BOND
     1    34    19    1
     2    33    18    1
     3    19    18   ar
     4    19    20   ar
     5    18    17   ar
     6    35    20    1
     7    20    15   ar
     8    17    32    1
     9    17    16   ar
    10    15    16   ar
    11    15     1    1
    12    16    31    1
    13    26    10    1
    14    27    11    1
    15     2     1    1
    16    10    11   ar
    17    10     9   ar
    18    11    12   ar
    19     1     9    1
    20     1     3    1
    21     9    14   ar
    22    12    28    1
    23    12    13   ar
    24    14    13   ar
    25    14    30    1
    26    13    29    1
    27     3     4   ar
    28     3     8   ar
    29    25     8    1
    30    21     4    1
    31     4     5   ar
    32     8     7   ar
    33     7    24    1
    34     7     6   ar
    35     5    22    1
    36     5     6   ar
    37     6    23    1
