@<TRIPOS>MOLECULE
2
 35 37 0 0 0
SMALL
GASTEIGER

@<TRIPOS>ATOM
      1 SI         15.1219    6.0712    2.4909 Si      1  UNL1        0.0000
      2 O          16.6688    5.7290    2.5203 O.3     1  UNL1        0.0000
      3 C          14.2871    5.3436    0.9434 C.ar    1  UNL1        0.0000
      4 C          15.0591    4.6080    0.0495 C.ar    1  UNL1        0.0000
      5 C          14.4945    4.0579   -1.0884 C.ar    1  UNL1        0.0000
      6 C          13.1453    4.2323   -1.3498 C.ar    1  UNL1        0.0000
      7 C          12.3665    4.9706   -0.4744 C.ar    1  UNL1        0.0000
      8 C          12.9374    5.5230    0.6586 C.ar    1  UNL1        0.0000
      9 C          14.8341    7.9607    2.5225 C.ar    1  UNL1        0.0000
     10 C          14.0914    8.5976    3.5114 C.ar    1  UNL1        0.0000
     11 C          14.0204    9.9780    3.5772 C.ar    1  UNL1        0.0000
     12 C          14.6959   10.7494    2.6475 C.ar    1  UNL1        0.0000
     13 C          15.4242   10.1331    1.6434 C.ar    1  UNL1        0.0000
     14 C          15.4900    8.7517    1.5823 C.ar    1  UNL1        0.0000
     15 C          14.3198    5.3624    4.0685 C.ar    1  UNL1        0.0000
     16 C          13.2026    4.5393    4.0292 C.ar    1  UNL1        0.0000
     17 C          12.6126    4.0707    5.1905 C.ar    1  UNL1        0.0000
     18 C          13.1348    4.4211    6.4237 C.ar    1  UNL1        0.0000
     19 C          14.2532    5.2355    6.4835 C.ar    1  UNL1        0.0000
     20 C          14.8342    5.6971    5.3160 C.ar    1  UNL1        0.0000
     21 H          16.1195    4.4864    0.2496 H       1  UNL1        0.0000
     22 H          15.1082    3.4926   -1.7763 H       1  UNL1        0.0000
     23 H          12.7011    3.8000   -2.2371 H       1  UNL1        0.0000
     24 H          11.3133    5.1173   -0.6791 H       1  UNL1        0.0000
     25 H          12.3270    6.1093    1.3333 H       1  UNL1        0.0000
     26 H          13.5691    7.9996    4.2476 H       1  UNL1        0.0000
     27 H          13.4460   10.4546    4.3613 H       1  UNL1        0.0000
     28 H          14.6557   11.8290    2.7060 H       1  UNL1        0.0000
     29 H          15.9477   10.7316    0.9110 H       1  UNL1        0.0000
     30 H          16.0656    8.2736    0.7984 H       1  UNL1        0.0000
     31 H          12.7909    4.2576    3.0705 H       1  UNL1        0.0000
     32 H          11.7423    3.4294    5.1359 H       1  UNL1        0.0000
     33 H          12.6748    4.0586    7.3337 H       1  UNL1        0.0000
     34 H          14.6704    5.5100    7.4437 H       1  UNL1        0.0000
     35 H          15.7094    6.3290    5.3687 H       1  UNL1        0.0000
@<TRIPOS>BOND
     1    23     6    1
     2    22     5    1
     3     6     5   ar
     4     6     7   ar
     5     5     4   ar
     6    24     7    1
     7     7     8   ar
     8     4    21    1
     9     4     3   ar
    10     8     3   ar
    11     8    25    1
    12    30    14    1
    13    29    13    1
    14     3     1    1
    15    14    13   ar
    16    14     9   ar
    17    13    12   ar
    18     1     2    1
    19     1     9    1
    20     1    15    1
    21     9    10   ar
    22    12    28    1
    23    12    11   ar
    24    31    16    1
    25    10    11   ar
    26    10    26    1
    27    11    27    1
    28    16    15   ar
    29    16    17   ar
    30    15    20   ar
    31    32    17    1
    32    17    18   ar
    33    20    35    1
    34    20    19   ar
    35    18    19   ar
    36    18    33    1
    37    19    34    1
