@<TRIPOS>MOLECULE
1
 13 13 0 0 0
SMALL
GASTEIGER

@<TRIPOS>ATOM
      1 O          -1.6832    3.7230   14.1006 O.3     1  UNL1       -0.3798
      2 C          -2.8773    2.9426   14.1500 C.3     1  UNL1        0.0477
      3 C          -3.4358    2.8963   12.7280 C.3     1  UNL1       -0.0274
      4 C          -2.9183    4.2119   12.1553 C.3     1  UNL1       -0.0274
      5 C          -1.5350    4.2812   12.7951 C.3     1  UNL1        0.0477
      6 H          -2.6239    1.9537   14.5442 H       1  UNL1        0.0560
      7 H          -3.5882    3.4317   14.8284 H       1  UNL1        0.0560
      8 H          -3.0147    2.0554   12.1751 H       1  UNL1        0.0288
      9 H          -4.5204    2.8182   12.7124 H       1  UNL1        0.0288
     10 H          -2.8747    4.2211   11.0688 H       1  UNL1        0.0288
     11 H          -3.5397    5.0429   12.4933 H       1  UNL1        0.0288
     12 H          -0.8171    3.6848   12.2179 H       1  UNL1        0.0560
     13 H          -1.1562    5.3017   12.8925 H       1  UNL1        0.0560
@<TRIPOS>BOND
     1    10     4    1
     2     4    11    1
     3     4     3    1
     4     4     5    1
     5     8     3    1
     6    12     5    1
     7     9     3    1
     8     3     2    1
     9     5    13    1
    10     5     1    1
    11     1     2    1
    12     2     6    1
    13     2     7    1
