@<TRIPOS>MOLECULE
2
 14 13 0 0 0
SMALL
GASTEIGER

@<TRIPOS>ATOM
      1 SI          1.1196    8.3182    8.0814 Si      1  UNL1        0.0000
      2 O           2.5358    8.3578    7.2572 O.3     1  UNL1        0.0000
      3 C           1.3542    7.9743    9.9466 C.3     1  UNL1        0.0000
      4 H           1.9122    7.0642   10.1394 H       1  UNL1        0.0000
      5 H           0.3695    7.8451   10.3861 H       1  UNL1        0.0000
      6 H           1.8327    8.7871   10.4880 H       1  UNL1        0.0000
      7 C           0.3700   10.0925    7.9635 C.3     1  UNL1        0.0000
      8 H           0.3113   10.5511    8.9463 H       1  UNL1        0.0000
      9 H          -0.6451   10.0510    7.5826 H       1  UNL1        0.0000
     10 H           0.9300   10.7668    7.3198 H       1  UNL1        0.0000
     11 C          -0.0208    7.0147    7.2958 C.3     1  UNL1        0.0000
     12 H           0.5351    6.3556    6.6370 H       1  UNL1        0.0000
     13 H          -0.8248    7.4621    6.7193 H       1  UNL1        0.0000
     14 H          -0.4774    6.4012    8.0657 H       1  UNL1        0.0000
@<TRIPOS>BOND
     1    12    11    1
     2    13    11    1
     3     2     1    1
     4    11    14    1
     5    11     1    1
     6    10     7    1
     7     9     7    1
     8     7     1    1
     9     7     8    1
    10     1     3    1
    11     3     4    1
    12     3     5    1
    13     3     6    1
