@<TRIPOS>MOLECULE
5
 8 7 0 0 0
SMALL
GASTEIGER

@<TRIPOS>ATOM
      1 S           3.7116    5.4749    6.0430 S.3     1  UNL1        0.1076
      2 F           1.7177    4.0767    7.1457 F       1  UNL1       -0.1499
      3 F           3.6735    3.6128    7.9361 F       1  UNL1       -0.1499
      4 F           2.7036    5.4544    8.4792 F       1  UNL1       -0.1499
      5 O           4.5644    6.4456    6.7532 O.3     1  UNL1       -0.0619
      6 O           4.4025    4.4692    5.3159 O.3     1  UNL1       -0.0619
      7 O           2.6337    6.1493    5.3511 O.3     1  UNL1       -0.0619
      8 C           2.8998    4.5864    7.4797 C.3     1  UNL1        0.5278
@<TRIPOS>BOND
     1     6     1    1
     2     7     1    1
     3     1     5    1
     4     1     8    1
     5     2     8    1
     6     8     3    1
     7     8     4    1
