@<TRIPOS>MOLECULE
2
 14 13 0 0 0
SMALL
GASTEIGER

@<TRIPOS>ATOM
      1 SI         -2.8296   -5.2807    0.5202 Si      1  UNL1        0.0000
      2 O          -2.3105   -4.3126    1.6919 O.3     1  UNL1        0.0000
      3 C          -3.3706   -6.9396    1.2932 C.3     1  UNL1        0.0000
      4 H          -2.5223   -7.5448    1.6021 H       1  UNL1        0.0000
      5 H          -3.9439   -7.5183    0.5775 H       1  UNL1        0.0000
      6 H          -3.9987   -6.7772    2.1647 H       1  UNL1        0.0000
      7 C          -1.4024   -5.5547   -0.7186 C.3     1  UNL1        0.0000
      8 H          -0.4793   -5.8599   -0.2323 H       1  UNL1        0.0000
      9 H          -1.1888   -4.6668   -1.3075 H       1  UNL1        0.0000
     10 H          -1.6773   -6.3392   -1.4138 H       1  UNL1        0.0000
     11 C          -4.3003   -4.4328   -0.3594 C.3     1  UNL1        0.0000
     12 H          -5.0947   -4.1976    0.3434 H       1  UNL1        0.0000
     13 H          -4.7139   -5.0983   -1.1088 H       1  UNL1        0.0000
     14 H          -4.0134   -3.5138   -0.8654 H       1  UNL1        0.0000
@<TRIPOS>BOND
     1    10     7    1
     2     9     7    1
     3    13    11    1
     4    14    11    1
     5     7     8    1
     6     7     1    1
     7    11    12    1
     8    11     1    1
     9     1     3    1
    10     1     2    1
    11     5     3    1
    12     3     4    1
    13     3     6    1
