@<TRIPOS>MOLECULE
1
 13 13 0 0 0
SMALL
GASTEIGER

@<TRIPOS>ATOM
      1 O           3.8051    9.6598    7.2004 O.3     1  UNL1       -0.3798
      2 C           2.7841   10.3332    7.9566 C.3     1  UNL1        0.0477
      3 H           2.1859    9.5800    8.4837 H       1  UNL1        0.0560
      4 H           2.1454   10.8810    7.2590 H       1  UNL1        0.0560
      5 C           3.5077   11.2386    8.9466 C.3     1  UNL1       -0.0274
      6 H           3.7780   12.1839    8.4747 H       1  UNL1        0.0288
      7 H           2.9076   11.4410    9.8297 H       1  UNL1        0.0288
      8 C           4.7569   10.4153    9.2459 C.3     1  UNL1       -0.0274
      9 H           4.5227    9.6272    9.9615 H       1  UNL1        0.0288
     10 H           5.5824   11.0111    9.6275 H       1  UNL1        0.0288
     11 C           5.0658    9.8128    7.8794 C.3     1  UNL1        0.0477
     12 H           5.6945   10.4913    7.2870 H       1  UNL1        0.0560
     13 H           5.5496    8.8330    7.9420 H       1  UNL1        0.0560
@<TRIPOS>BOND
     1     1    11    1
     2     1     2    1
     3     4     2    1
     4    12    11    1
     5    11    13    1
     6    11     8    1
     7     2     3    1
     8     2     5    1
     9     6     5    1
    10     5     8    1
    11     5     7    1
    12     8    10    1
    13     8     9    1
