@<TRIPOS>MOLECULE
1
 13 13 0 0 0
SMALL
GASTEIGER

@<TRIPOS>ATOM
      1 O           6.8391    1.2898    3.3232 O.3     1  UNL1       -0.3798
      2 C           7.9230    1.5028    2.4270 C.3     1  UNL1        0.0477
      3 C           7.8402    0.3999    1.3748 C.3     1  UNL1       -0.0274
      4 C           7.2197   -0.7428    2.1759 C.3     1  UNL1       -0.0274
      5 C           6.2483    0.0059    3.0819 C.3     1  UNL1        0.0477
      6 H           8.8564    1.4332    3.0058 H       1  UNL1        0.0560
      7 H           7.8436    2.5083    2.0061 H       1  UNL1        0.0560
      8 H           7.1777    0.6955    0.5595 H       1  UNL1        0.0288
      9 H           8.8148    0.1517    0.9604 H       1  UNL1        0.0288
     10 H           6.7160   -1.4764    1.5508 H       1  UNL1        0.0288
     11 H           7.9820   -1.2495    2.7684 H       1  UNL1        0.0288
     12 H           6.0699   -0.4838    4.0418 H       1  UNL1        0.0560
     13 H           5.2827    0.1647    2.5808 H       1  UNL1        0.0560
@<TRIPOS>BOND
     1     8     3    1
     2     9     3    1
     3     3     4    1
     4     3     2    1
     5    10     4    1
     6     7     2    1
     7     4    11    1
     8     4     5    1
     9     2     6    1
    10     2     1    1
    11    13     5    1
    12     5     1    1
    13     5    12    1
