@<TRIPOS>MOLECULE
1
 14 13 0 0 0
SMALL
GASTEIGER

@<TRIPOS>ATOM
      1 O           6.6201    5.1491    6.0919 O.3     1  UNL1       -0.2285
      2 C           6.8518    5.4757    7.4326 C.3     1  UNL1        0.0962
      3 C           5.5188    5.4751    8.2041 C.3     1  UNL1       -0.0333
      4 H           5.6884    5.6911    9.2559 H       1  UNL1        0.0258
      5 H           5.0432    4.5027    8.1106 H       1  UNL1        0.0258
      6 H           4.8508    6.2272    7.7891 H       1  UNL1        0.0258
      7 C           7.4918    6.8791    7.5184 C.3     1  UNL1       -0.0333
      8 H           7.6757    7.1554    8.5559 H       1  UNL1        0.0258
      9 H           6.8243    7.6164    7.0645 H       1  UNL1        0.0258
     10 H           8.4406    6.8692    6.9680 H       1  UNL1        0.0258
     11 C           7.8183    4.4533    8.0686 C.3     1  UNL1       -0.0333
     12 H           7.3463    3.4741    8.1261 H       1  UNL1        0.0258
     13 H           8.0965    4.7631    9.0735 H       1  UNL1        0.0258
     14 H           8.7141    4.3836    7.4483 H       1  UNL1        0.0258
@<TRIPOS>BOND
     1     1     2    1
     2    10     7    1
     3     9     7    1
     4     2     7    1
     5     2    11    1
     6     2     3    1
     7    14    11    1
     8     7     8    1
     9     6     3    1
    10    11    12    1
    11    11    13    1
    12     5     3    1
    13     3     4    1
