@<TRIPOS>MOLECULE
5
 41 41 0 0 0
SMALL
GASTEIGER

@<TRIPOS>ATOM
      1 SI          7.5690    9.1191    4.3510 Si      1  UNL1        0.0000
      2 SI          5.2072    8.8091    4.4903 Si      1  UNL1        0.0000
      3 SI          8.1078   10.8638    5.8519 Si      1  UNL1        0.0000
      4 SI          8.1639    9.3743    2.0766 Si      1  UNL1        0.0000
      5 O           8.1685    7.6675    4.6726 O.3     1  UNL1        0.0000
      6 C           4.8985    6.9733    4.0794 C.3     1  UNL1        0.0000
      7 H           5.4143    6.3441    4.8153 H       1  UNL1        0.0000
      8 H           5.3052    6.7385    3.0975 H       1  UNL1        0.0000
      9 H           3.8488    6.6939    4.0684 H       1  UNL1        0.0000
     10 C           4.1917    9.8191    3.2120 C.3     1  UNL1        0.0000
     11 H           3.1304    9.6031    3.2865 H       1  UNL1        0.0000
     12 H           4.4960    9.6104    2.1917 H       1  UNL1        0.0000
     13 H           4.3143   10.8844    3.3758 H       1  UNL1        0.0000
     14 C           4.2920    9.1220    6.1620 C.3     1  UNL1        0.0000
     15 H           4.7090    8.5429    6.9819 H       1  UNL1        0.0000
     16 H           3.2385    8.8635    6.0872 H       1  UNL1        0.0000
     17 H           4.3438   10.1689    6.4457 H       1  UNL1        0.0000
     18 C           6.9534   12.2689    5.2426 C.3     1  UNL1        0.0000
     19 H           5.9109   11.9673    5.2605 H       1  UNL1        0.0000
     20 H           7.1887   12.5523    4.2217 H       1  UNL1        0.0000
     21 H           7.0448   13.1605    5.8548 H       1  UNL1        0.0000
     22 C           7.6454   10.5934    7.7014 C.3     1  UNL1        0.0000
     23 H           8.2766    9.8469    8.1740 H       1  UNL1        0.0000
     24 H           6.6170   10.2615    7.8035 H       1  UNL1        0.0000
     25 H           7.7473   11.5113    8.2749 H       1  UNL1        0.0000
     26 C           9.8483   11.6731    5.8975 C.3     1  UNL1        0.0000
     27 H          10.5443   11.1083    6.5088 H       1  UNL1        0.0000
     28 H           9.7948   12.6779    6.3088 H       1  UNL1        0.0000
     29 H          10.2714   11.7557    4.9010 H       1  UNL1        0.0000
     30 C           7.3655    7.8883    1.1446 C.3     1  UNL1        0.0000
     31 H           6.3347    8.1001    0.8741 H       1  UNL1        0.0000
     32 H           7.3597    7.0020    1.7847 H       1  UNL1        0.0000
     33 H           7.8888    7.6346    0.2260 H       1  UNL1        0.0000
     34 C           7.4877   10.9792    1.2848 C.3     1  UNL1        0.0000
     35 H           7.5988   10.9622    0.2057 H       1  UNL1        0.0000
     36 H           8.0249   11.8476    1.6505 H       1  UNL1        0.0000
     37 H           6.4369   11.1315    1.5036 H       1  UNL1        0.0000
     38 C          10.0326    9.3454    1.6106 C.3     1  UNL1        0.0000
     39 H          10.5096    8.4203    1.9185 H       1  UNL1        0.0000
     40 H          10.5662   10.1618    2.0892 H       1  UNL1        0.0000
     41 H          10.1796    9.4506    0.5378 H       1  UNL1        0.0000
@<TRIPOS>BOND
     1    35    34    1
     2    33    30    1
     3    41    38    1
     4    31    30    1
     5    30    32    1
     6    30     4    1
     7    34    37    1
     8    34    36    1
     9    34     4    1
    10    38    39    1
    11    38     4    1
    12    38    40    1
    13     4     1    1
    14    12    10    1
    15     8     6    1
    16    10    11    1
    17    10    13    1
    18    10     2    1
    19     9     6    1
    20     6     2    1
    21     6     7    1
    22    20    18    1
    23     1     2    1
    24     1     5    1
    25     1     3    1
    26     2    14    1
    27    29    26    1
    28    18    19    1
    29    18     3    1
    30    18    21    1
    31     3    26    1
    32     3    22    1
    33    26    28    1
    34    26    27    1
    35    16    14    1
    36    14    17    1
    37    14    15    1
    38    22    24    1
    39    22    23    1
    40    22    25    1
    41     1    18    0
