@<TRIPOS>MOLECULE
5
 41 40 0 0 0
SMALL
GASTEIGER

@<TRIPOS>ATOM
      1 SI          5.9870    3.7664    2.8653 Si      1  UNL1        0.0000
      2 SI          5.1489    4.1602    0.7054 Si      1  UNL1        0.0000
      3 SI          4.4203    3.1909    4.5719 Si      1  UNL1        0.0000
      4 SI          7.6465    2.0615    2.9379 Si      1  UNL1        0.0000
      5 O           6.9349    5.0229    3.1919 O.3     1  UNL1        0.0000
      6 C           4.3061    2.5687    0.0630 C.3     1  UNL1        0.0000
      7 H           3.9990    2.6731   -0.9723 H       1  UNL1        0.0000
      8 H           3.4211    2.3274    0.6402 H       1  UNL1        0.0000
      9 H           4.9739    1.7154    0.1218 H       1  UNL1        0.0000
     10 C           3.8319    5.5568    0.5765 C.3     1  UNL1        0.0000
     11 H           3.0109    5.3769    1.2651 H       1  UNL1        0.0000
     12 H           3.4080    5.6222   -0.4223 H       1  UNL1        0.0000
     13 H           4.2492    6.5299    0.8175 H       1  UNL1        0.0000
     14 C           6.5137    4.5699   -0.5867 C.3     1  UNL1        0.0000
     15 H           6.1010    4.8783   -1.5441 H       1  UNL1        0.0000
     16 H           7.1447    3.7044   -0.7661 H       1  UNL1        0.0000
     17 H           7.1543    5.3704   -0.2324 H       1  UNL1        0.0000
     18 C           3.3032    1.8653    3.7404 C.3     1  UNL1        0.0000
     19 H           2.6209    2.3127    3.0255 H       1  UNL1        0.0000
     20 H           2.6995    1.3401    4.4730 H       1  UNL1        0.0000
     21 H           3.8885    1.1229    3.2084 H       1  UNL1        0.0000
     22 C           3.1361    4.3633    5.4036 C.3     1  UNL1        0.0000
     23 H           2.4985    4.8451    4.6667 H       1  UNL1        0.0000
     24 H           3.6197    5.1382    5.9879 H       1  UNL1        0.0000
     25 H           2.4825    3.8053    6.0717 H       1  UNL1        0.0000
     26 C           5.2651    2.2525    6.0234 C.3     1  UNL1        0.0000
     27 H           5.6387    1.2822    5.7118 H       1  UNL1        0.0000
     28 H           4.5880    2.0838    6.8574 H       1  UNL1        0.0000
     29 H           6.1071    2.8332    6.3850 H       1  UNL1        0.0000
     30 C           7.1400    0.2270    3.1803 C.3     1  UNL1        0.0000
     31 H           6.4457    0.0871    4.0006 H       1  UNL1        0.0000
     32 H           8.0038   -0.4020    3.3710 H       1  UNL1        0.0000
     33 H           6.6586   -0.1504    2.2849 H       1  UNL1        0.0000
     34 C           8.6505    2.5688    4.5068 C.3     1  UNL1        0.0000
     35 H           9.7279    2.5922    4.3596 H       1  UNL1        0.0000
     36 H           8.4514    1.8959    5.3373 H       1  UNL1        0.0000
     37 H           8.3277    3.5804    4.8147 H       1  UNL1        0.0000
     38 C           8.8646    1.9536    1.4439 C.3     1  UNL1        0.0000
     39 H           9.7217    1.3186    1.6530 H       1  UNL1        0.0000
     40 H           9.2390    2.9239    1.1347 H       1  UNL1        0.0000
     41 H           8.3508    1.5205    0.5902 H       1  UNL1        0.0000
@<TRIPOS>BOND
     1    15    14    1
     2     7     6    1
     3    16    14    1
     4    14    17    1
     5    14     2    1
     6    12    10    1
     7     6     9    1
     8     6     8    1
     9     6     2    1
    10    10     2    1
    11    10    13    1
    12    10    11    1
    13    41    38    1
    14     2     1    1
    15    40    38    1
    16    38    39    1
    17    38     4    1
    18    33    30    1
    19     1     4    1
    20     1     5    1
    21     1     3    1
    22     4    30    1
    23     4    34    1
    24    19    18    1
    25    30    32    1
    26    30    31    1
    27    21    18    1
    28    18    20    1
    29    18     3    1
    30    35    34    1
    31    34    37    1
    32    34    36    1
    33     3    22    1
    34     3    26    1
    35    23    22    1
    36    22    24    1
    37    22    25    1
    38    27    26    1
    39    26    29    1
    40    26    28    1
