@<TRIPOS>MOLECULE
5
 41 40 0 0 0
SMALL
GASTEIGER

@<TRIPOS>ATOM
      1 SI         11.1378    5.3403    5.5875 Si      1  UNL1        0.0000
      2 SI         11.9271    3.6160    6.9859 Si      1  UNL1        0.0000
      3 SI         11.5260    5.0645    3.2502 Si      1  UNL1        0.0000
      4 SI         11.8802    7.4726    6.2736 Si      1  UNL1        0.0000
      5 O           9.5401    5.3422    5.5896 O.3     1  UNL1        0.0000
      6 C          11.0547    1.9025    7.0689 C.3     1  UNL1        0.0000
      7 H          11.1231    1.3719    6.1237 H       1  UNL1        0.0000
      8 H          10.0012    2.0076    7.3114 H       1  UNL1        0.0000
      9 H          11.5010    1.2655    7.8292 H       1  UNL1        0.0000
     10 C          11.9726    4.2271    8.8084 C.3     1  UNL1        0.0000
     11 H          12.4206    3.4947    9.4743 H       1  UNL1        0.0000
     12 H          10.9752    4.4399    9.1825 H       1  UNL1        0.0000
     13 H          12.5533    5.1407    8.8945 H       1  UNL1        0.0000
     14 C          13.7415    3.2635    6.4906 C.3     1  UNL1        0.0000
     15 H          13.8133    2.8467    5.4913 H       1  UNL1        0.0000
     16 H          14.2111    2.5614    7.1716 H       1  UNL1        0.0000
     17 H          14.3313    4.1738    6.5047 H       1  UNL1        0.0000
     18 C          12.0011    3.3279    2.5602 C.3     1  UNL1        0.0000
     19 H          11.8302    3.2539    1.4897 H       1  UNL1        0.0000
     20 H          11.4681    2.5105    3.0337 H       1  UNL1        0.0000
     21 H          13.0607    3.1583    2.7254 H       1  UNL1        0.0000
     22 C           9.8129    5.5675    2.5284 C.3     1  UNL1        0.0000
     23 H           9.4171    6.3948    3.1416 H       1  UNL1        0.0000
     24 H           9.1120    4.7286    2.5806 H       1  UNL1        0.0000
     25 H           9.8409    5.9079    1.4941 H       1  UNL1        0.0000
     26 C          12.8067    6.1880    2.3557 C.3     1  UNL1        0.0000
     27 H          12.9297    5.8886    1.3190 H       1  UNL1        0.0000
     28 H          13.7790    6.1017    2.8293 H       1  UNL1        0.0000
     29 H          12.5382    7.2386    2.3587 H       1  UNL1        0.0000
     30 C          11.0628    8.1917    7.8592 C.3     1  UNL1        0.0000
     31 H          10.0503    8.5215    7.6465 H       1  UNL1        0.0000
     32 H          11.6106    9.0436    8.2550 H       1  UNL1        0.0000
     33 H          11.0081    7.4476    8.6490 H       1  UNL1        0.0000
     34 C          11.6213    8.7895    4.9058 C.3     1  UNL1        0.0000
     35 H          12.2258    8.5683    4.0329 H       1  UNL1        0.0000
     36 H          11.8912    9.7886    5.2319 H       1  UNL1        0.0000
     37 H          10.5790    8.8087    4.5978 H       1  UNL1        0.0000
     38 C          13.7648    7.4141    6.6147 C.3     1  UNL1        0.0000
     39 H          14.3099    7.0458    5.7518 H       1  UNL1        0.0000
     40 H          14.0054    6.7667    7.4512 H       1  UNL1        0.0000
     41 H          14.1530    8.4001    6.8468 H       1  UNL1        0.0000
@<TRIPOS>BOND
     1    27    26    1
     2    19    18    1
     3    25    22    1
     4    26    29    1
     5    26    28    1
     6    26     3    1
     7    22    24    1
     8    22    23    1
     9    22     3    1
    10    18    21    1
    11    18    20    1
    12    18     3    1
    13     3     1    1
    14    35    34    1
    15    37    34    1
    16    34    36    1
    17    34     4    1
    18    15    14    1
    19     1     5    1
    20     1     4    1
    21     1     2    1
    22    39    38    1
    23     7     6    1
    24     4    38    1
    25     4    30    1
    26    14    17    1
    27    14     2    1
    28    14    16    1
    29    38    41    1
    30    38    40    1
    31     2     6    1
    32     2    10    1
    33     6     8    1
    34     6     9    1
    35    31    30    1
    36    30    32    1
    37    30    33    1
    38    10    13    1
    39    10    12    1
    40    10    11    1
