@<TRIPOS>MOLECULE
1
 14 13 0 0 0
SMALL
GASTEIGER

@<TRIPOS>ATOM
      1 O           1.1491   12.3546    3.9043 O.3     1  UNL1       -0.2285
      2 C           0.1841   11.3462    3.9340 C.3     1  UNL1        0.0962
      3 C           0.8789    9.9710    3.9571 C.3     1  UNL1       -0.0333
      4 H           1.5783    9.9200    3.1194 H       1  UNL1        0.0258
      5 H           0.1505    9.1677    3.8708 H       1  UNL1        0.0258
      6 H           1.4291    9.8499    4.8895 H       1  UNL1        0.0258
      7 C          -0.7069   11.4409    2.6807 C.3     1  UNL1       -0.0333
      8 H          -1.2025   12.4115    2.6582 H       1  UNL1        0.0258
      9 H          -1.4603   10.6551    2.6858 H       1  UNL1        0.0258
     10 H          -0.0814   11.3482    1.7894 H       1  UNL1        0.0258
     11 C          -0.6905   11.5055    5.1913 C.3     1  UNL1       -0.0333
     12 H          -0.0724   11.4535    6.0850 H       1  UNL1        0.0258
     13 H          -1.4376   10.7170    5.2331 H       1  UNL1        0.0258
     14 H          -1.1911   12.4707    5.1689 H       1  UNL1        0.0258
@<TRIPOS>BOND
     1    10     7    1
     2     8     7    1
     3     7     9    1
     4     7     2    1
     5     4     3    1
     6     5     3    1
     7     1     2    1
     8     2     3    1
     9     2    11    1
    10     3     6    1
    11    14    11    1
    12    11    13    1
    13    11    12    1
