@<TRIPOS>MOLECULE
1
 14 13 0 0 0
SMALL
GASTEIGER

@<TRIPOS>ATOM
      1 O           3.2742   11.6218    2.0579 O.3     1  UNL1       -0.2285
      2 C           4.5270   11.1914    2.5010 C.3     1  UNL1        0.0962
      3 C           5.5652   12.3048    2.2629 C.3     1  UNL1       -0.0333
      4 H           5.6805   12.4870    1.1954 H       1  UNL1        0.0258
      5 H           6.5332   12.0273    2.6750 H       1  UNL1        0.0258
      6 H           5.2115   13.2215    2.7415 H       1  UNL1        0.0258
      7 C           4.9359    9.9162    1.7413 C.3     1  UNL1       -0.0333
      8 H           4.1926    9.1373    1.8999 H       1  UNL1        0.0258
      9 H           5.9009    9.5624    2.0951 H       1  UNL1        0.0258
     10 H           4.9972   10.1175    0.6756 H       1  UNL1        0.0258
     11 C           4.4564   10.8887    4.0099 C.3     1  UNL1       -0.0333
     12 H           3.9929   11.7437    4.5071 H       1  UNL1        0.0258
     13 H           5.4499   10.7183    4.4194 H       1  UNL1        0.0258
     14 H           3.8511   10.0010    4.1868 H       1  UNL1        0.0258
@<TRIPOS>BOND
     1    10     7    1
     2     4     3    1
     3     7     8    1
     4     7     9    1
     5     7     2    1
     6     1     2    1
     7     3     2    1
     8     3     5    1
     9     3     6    1
    10     2    11    1
    11    11    14    1
    12    11    13    1
    13    11    12    1
