@<TRIPOS>MOLECULE
1
 17 16 0 0 0
SMALL
GASTEIGER

@<TRIPOS>ATOM
      1 O           6.6803   11.0622   24.5042 O.3     1  UNL1       -0.2342
      2 C           7.7330   10.5649   25.2685 C.3     1  UNL1        0.0877
      3 H           8.4114   11.3851   25.5670 H       1  UNL1        0.0597
      4 H           8.3173    9.8387   24.6785 H       1  UNL1        0.0597
      5 C           7.2611    9.8345   26.5512 C.3     1  UNL1       -0.0113
      6 C           6.5184   10.8176   27.4561 C.3     1  UNL1       -0.0579
      7 H           7.1937   11.5966   27.8042 H       1  UNL1        0.0236
      8 H           6.1046   10.3046   28.3219 H       1  UNL1        0.0236
      9 H           5.7070   11.2841   26.9047 H       1  UNL1        0.0236
     10 C           8.4828    9.2840   27.2895 C.3     1  UNL1       -0.0579
     11 H           9.0089    8.5554   26.6767 H       1  UNL1        0.0236
     12 H           8.1729    8.7938   28.2100 H       1  UNL1        0.0236
     13 H           9.1771   10.0825   27.5403 H       1  UNL1        0.0236
     14 C           6.3340    8.6846   26.1557 C.3     1  UNL1       -0.0579
     15 H           5.5290    9.0647   25.5342 H       1  UNL1        0.0236
     16 H           5.9098    8.2115   27.0388 H       1  UNL1        0.0236
     17 H           6.8830    7.9335   25.5918 H       1  UNL1        0.0236
@<TRIPOS>BOND
     1     1     2    1
     2     4     2    1
     3     2     3    1
     4     2     5    1
     5    15    14    1
     6    17    14    1
     7    14     5    1
     8    14    16    1
     9     5    10    1
    10     5     6    1
    11    11    10    1
    12     9     6    1
    13    10    13    1
    14    10    12    1
    15     6     7    1
    16     6     8    1
