@<TRIPOS>MOLECULE
1
 14 13 0 0 0
SMALL
GASTEIGER

@<TRIPOS>ATOM
      1 O           9.2944    3.7138    4.1225 O.3     1  UNL1       -0.2285
      2 C          10.3875    2.8408    4.0372 C.3     1  UNL1        0.0962
      3 C           9.9187    1.3882    4.2405 C.3     1  UNL1       -0.0333
      4 H           9.4241    1.2919    5.2049 H       1  UNL1        0.0258
      5 H          10.7633    0.7039    4.2088 H       1  UNL1        0.0258
      6 H           9.2178    1.1327    3.4455 H       1  UNL1        0.0258
      7 C          11.0355    2.9425    2.6410 C.3     1  UNL1       -0.0333
      8 H          10.2699    2.7304    1.8846 H       1  UNL1        0.0258
      9 H          11.8480    2.2236    2.5444 H       1  UNL1        0.0258
     10 H          11.4364    3.9447    2.4754 H       1  UNL1        0.0258
     11 C          11.4182    3.2111    5.1185 C.3     1  UNL1       -0.0333
     12 H          11.7444    4.2392    4.9811 H       1  UNL1        0.0258
     13 H          12.2806    2.5521    5.0659 H       1  UNL1        0.0258
     14 H          10.9640    3.1223    6.1022 H       1  UNL1        0.0258
@<TRIPOS>BOND
     1     8     7    1
     2    10     7    1
     3     9     7    1
     4     7     2    1
     5     6     3    1
     6     2     1    1
     7     2     3    1
     8     2    11    1
     9     5     3    1
    10     3     4    1
    11    12    11    1
    12    13    11    1
    13    11    14    1
