@<TRIPOS>MOLECULE
5
 41 41 0 0 0
SMALL
GASTEIGER

@<TRIPOS>ATOM
      1 SI         10.2081   13.4421   23.4189 Si      1  UNL1        0.0000
      2 SI         11.0159   13.2568   21.2074 Si      1  UNL1        0.0000
      3 SI         11.5361   12.1576   24.9155 Si      1  UNL1        0.0000
      4 SI         10.3431   15.7406   24.0787 Si      1  UNL1        0.0000
      5 O           8.6899   12.9860   23.5811 O.3     1  UNL1        0.0000
      6 C           9.8243   13.7514   19.7847 C.3     1  UNL1        0.0000
      7 H           8.9305   13.1394   19.8525 H       1  UNL1        0.0000
      8 H          10.2581   13.6055   18.7983 H       1  UNL1        0.0000
      9 H           9.5190   14.7925   19.8558 H       1  UNL1        0.0000
     10 C          11.6916   11.5281   20.7151 C.3     1  UNL1        0.0000
     11 H          12.3635   11.1362   21.4737 H       1  UNL1        0.0000
     12 H          12.2404   11.5534   19.7764 H       1  UNL1        0.0000
     13 H          10.8752   10.8238   20.6017 H       1  UNL1        0.0000
     14 C          12.5365   14.4182   21.0416 C.3     1  UNL1        0.0000
     15 H          12.2802   15.4565   21.2207 H       1  UNL1        0.0000
     16 H          12.9805   14.3583   20.0529 H       1  UNL1        0.0000
     17 H          13.3058   14.1480   21.7571 H       1  UNL1        0.0000
     18 C          13.3898   12.5872   24.6868 C.3     1  UNL1        0.0000
     19 H          13.7359   12.3101   23.6963 H       1  UNL1        0.0000
     20 H          14.0114   12.0628   25.4057 H       1  UNL1        0.0000
     21 H          13.5773   13.6470   24.8093 H       1  UNL1        0.0000
     22 C          11.5195   10.2348   24.8183 C.3     1  UNL1        0.0000
     23 H          10.5445    9.8303   25.0667 H       1  UNL1        0.0000
     24 H          12.2420    9.7888   25.4986 H       1  UNL1        0.0000
     25 H          11.7666    9.8960   23.8164 H       1  UNL1        0.0000
     26 C          11.1279   12.5664   26.7569 C.3     1  UNL1        0.0000
     27 H          11.3295   13.6109   26.9760 H       1  UNL1        0.0000
     28 H          11.7086   11.9696   27.4553 H       1  UNL1        0.0000
     29 H          10.0770   12.3897   26.9711 H       1  UNL1        0.0000
     30 C          10.1296   17.0091   22.6332 C.3     1  UNL1        0.0000
     31 H          11.0630   17.5283   22.4386 H       1  UNL1        0.0000
     32 H           9.3821   17.7676   22.8497 H       1  UNL1        0.0000
     33 H           9.8409   16.5142   21.7109 H       1  UNL1        0.0000
     34 C          12.0802   16.1476   24.7797 C.3     1  UNL1        0.0000
     35 H          12.2981   15.5913   25.6853 H       1  UNL1        0.0000
     36 H          12.1769   17.2032   25.0162 H       1  UNL1        0.0000
     37 H          12.8514   15.9071   24.0554 H       1  UNL1        0.0000
     38 C           9.1568   16.4172   25.4517 C.3     1  UNL1        0.0000
     39 H           8.1091   16.3390   25.1710 H       1  UNL1        0.0000
     40 H           9.3552   17.4627   25.6768 H       1  UNL1        0.0000
     41 H           9.2839   15.8616   26.3763 H       1  UNL1        0.0000
@<TRIPOS>BOND
     1     8     6    1
     2    12    10    1
     3     6     7    1
     4     6     9    1
     5     6     2    1
     6    16    14    1
     7    13    10    1
     8    10     2    1
     9    10    11    1
    10    14     2    1
    11    14    15    1
    12    14    17    1
    13     2     1    1
    14    33    30    1
    15    31    30    1
    16    30    32    1
    17    30     4    1
    18     1     5    1
    19     1     4    1
    20     1     3    1
    21    19    18    1
    22    25    22    1
    23    37    34    1
    24     4    34    1
    25     4    38    1
    26    18    21    1
    27    18     3    1
    28    18    20    1
    29    34    36    1
    30    34    35    1
    31    22     3    1
    32    22    23    1
    33    22    24    1
    34     3    26    1
    35    39    38    1
    36    38    40    1
    37    38    41    1
    38    26    29    1
    39    26    27    1
    40    26    28    1
    41     1    14    0
