@<TRIPOS>MOLECULE
5
 41 41 0 0 0
SMALL
GASTEIGER

@<TRIPOS>ATOM
      1 SI          3.6703   11.5980   21.8150 Si      1  UNL1        0.0000
      2 SI          2.4501   13.6683   21.7317 Si      1  UNL1        0.0000
      3 SI          2.7135   10.2083   23.4662 Si      1  UNL1        0.0000
      4 SI          3.5022   10.6220   19.6526 Si      1  UNL1        0.0000
      5 O           5.1705   11.9195   22.2433 O.3     1  UNL1        0.0000
      6 C           3.4465   15.2645   21.2999 C.3     1  UNL1        0.0000
      7 H           4.3123   15.3763   21.9477 H       1  UNL1        0.0000
      8 H           2.8464   16.1661   21.3977 H       1  UNL1        0.0000
      9 H           3.8105   15.2284   20.2774 H       1  UNL1        0.0000
     10 C           1.5534   14.1467   23.3810 C.3     1  UNL1        0.0000
     11 H           0.5026   14.3570   23.2043 H       1  UNL1        0.0000
     12 H           1.9841   15.0312   23.8433 H       1  UNL1        0.0000
     13 H           1.5976   13.3410   24.1075 H       1  UNL1        0.0000
     14 C           1.0267   13.6688   20.4475 C.3     1  UNL1        0.0000
     15 H           1.3697   13.4278   19.4469 H       1  UNL1        0.0000
     16 H           0.5408   14.6394   20.3996 H       1  UNL1        0.0000
     17 H           0.2664   12.9428   20.7169 H       1  UNL1        0.0000
     18 C           3.2084   10.7787   25.2309 C.3     1  UNL1        0.0000
     19 H           4.2592   11.0568   25.2114 H       1  UNL1        0.0000
     20 H           3.0783   10.0089   25.9873 H       1  UNL1        0.0000
     21 H           2.6445   11.6496   25.5532 H       1  UNL1        0.0000
     22 C           0.7987   10.2475   23.3718 C.3     1  UNL1        0.0000
     23 H           0.4056   11.2575   23.4146 H       1  UNL1        0.0000
     24 H           0.3470    9.6855   24.1832 H       1  UNL1        0.0000
     25 H           0.4524    9.8077   22.4431 H       1  UNL1        0.0000
     26 C           3.1721    8.3447   23.3619 C.3     1  UNL1        0.0000
     27 H           2.9510    7.9442   22.3762 H       1  UNL1        0.0000
     28 H           2.6180    7.7488   24.0835 H       1  UNL1        0.0000
     29 H           4.2293    8.1883   23.5499 H       1  UNL1        0.0000
     30 C           3.9842   11.8642   18.2580 C.3     1  UNL1        0.0000
     31 H           3.6372   12.8666   18.4925 H       1  UNL1        0.0000
     32 H           3.5585   11.5876   17.2971 H       1  UNL1        0.0000
     33 H           5.0626   11.9142   18.1309 H       1  UNL1        0.0000
     34 C           1.6599   10.1646   19.3925 C.3     1  UNL1        0.0000
     35 H           1.3738    9.3393   20.0371 H       1  UNL1        0.0000
     36 H           1.4644    9.8572   18.3697 H       1  UNL1        0.0000
     37 H           0.9974   10.9913   19.6157 H       1  UNL1        0.0000
     38 C           4.3817    8.9915   19.1177 C.3     1  UNL1        0.0000
     39 H           5.4482    9.1306   18.9677 H       1  UNL1        0.0000
     40 H           3.9715    8.6147   18.1832 H       1  UNL1        0.0000
     41 H           4.2511    8.2089   19.8604 H       1  UNL1        0.0000
@<TRIPOS>BOND
     1    32    30    1
     2    33    30    1
     3    40    38    1
     4    30    31    1
     5    30     4    1
     6    36    34    1
     7    39    38    1
     8    38     4    1
     9    38    41    1
    10    34    37    1
    11    34     4    1
    12    34    35    1
    13    15    14    1
    14     4     1    1
    15     9     6    1
    16    16    14    1
    17    14    17    1
    18    14     2    1
    19     6     8    1
    20     6     2    1
    21     6     7    1
    22     2     1    1
    23     2    10    1
    24     1     5    1
    25     1     3    1
    26    27    26    1
    27    25    22    1
    28    11    10    1
    29    26     3    1
    30    26    29    1
    31    26    28    1
    32    22    23    1
    33    22     3    1
    34    22    24    1
    35    10    12    1
    36    10    13    1
    37     3    18    1
    38    19    18    1
    39    18    21    1
    40    18    20    1
    41     1    34    0
