@<TRIPOS>MOLECULE
5
 41 40 0 0 0
SMALL
GASTEIGER

@<TRIPOS>ATOM
      1 SI         12.6650   14.9538    8.8745 Si      1  UNL1        0.0000
      2 SI         11.9337   13.3699   10.4901 Si      1  UNL1        0.0000
      3 SI         14.9794   15.4017    9.2874 Si      1  UNL1        0.0000
      4 SI         11.3875   16.9492    9.0473 Si      1  UNL1        0.0000
      5 O          12.4375   14.3757    7.4037 O.3     1  UNL1        0.0000
      6 C          10.2325   12.5018   10.2351 C.3     1  UNL1        0.0000
      7 H           9.4507   13.2291   10.0337 H       1  UNL1        0.0000
      8 H           9.9292   11.9373   11.1137 H       1  UNL1        0.0000
      9 H          10.2588   11.8080    9.3992 H       1  UNL1        0.0000
     10 C          13.1503   11.9180   10.8391 C.3     1  UNL1        0.0000
     11 H          13.1415   11.1785   10.0439 H       1  UNL1        0.0000
     12 H          12.9010   11.4026   11.7632 H       1  UNL1        0.0000
     13 H          14.1697   12.2799   10.9374 H       1  UNL1        0.0000
     14 C          11.7432   14.2864   12.1614 C.3     1  UNL1        0.0000
     15 H          12.6815   14.7251   12.4799 H       1  UNL1        0.0000
     16 H          11.4168   13.6137   12.9486 H       1  UNL1        0.0000
     17 H          11.0171   15.0905   12.1004 H       1  UNL1        0.0000
     18 C          15.2169   15.5603   11.1840 C.3     1  UNL1        0.0000
     19 H          14.5715   16.3289   11.5960 H       1  UNL1        0.0000
     20 H          16.2389   15.8286   11.4345 H       1  UNL1        0.0000
     21 H          14.9910   14.6339   11.7013 H       1  UNL1        0.0000
     22 C          16.3101   14.1111    8.7557 C.3     1  UNL1        0.0000
     23 H          16.1590   13.1585    9.2552 H       1  UNL1        0.0000
     24 H          17.3153   14.4462    9.0025 H       1  UNL1        0.0000
     25 H          16.2810   13.9288    7.6855 H       1  UNL1        0.0000
     26 C          15.6755   17.0696    8.6049 C.3     1  UNL1        0.0000
     27 H          16.1612   16.9448    7.6414 H       1  UNL1        0.0000
     28 H          16.4097   17.4947    9.2839 H       1  UNL1        0.0000
     29 H          14.8906   17.8092    8.4784 H       1  UNL1        0.0000
     30 C          12.1411   18.0873   10.3936 C.3     1  UNL1        0.0000
     31 H          12.1002   17.6054   11.3647 H       1  UNL1        0.0000
     32 H          11.5955   19.0223   10.4747 H       1  UNL1        0.0000
     33 H          13.1802   18.3313   10.1982 H       1  UNL1        0.0000
     34 C          11.2717   18.0083    7.4419 C.3     1  UNL1        0.0000
     35 H          12.1635   18.6130    7.2956 H       1  UNL1        0.0000
     36 H          10.4216   18.6862    7.4524 H       1  UNL1        0.0000
     37 H          11.1630   17.3638    6.5730 H       1  UNL1        0.0000
     38 C           9.5594   16.7095    9.6041 C.3     1  UNL1        0.0000
     39 H           8.9267   16.3615    8.7937 H       1  UNL1        0.0000
     40 H           9.1343   17.6401    9.9717 H       1  UNL1        0.0000
     41 H           9.4862   15.9838   10.4089 H       1  UNL1        0.0000
@<TRIPOS>BOND
     1    37    34    1
     2    35    34    1
     3     5     1    1
     4    34    36    1
     5    34     4    1
     6    27    26    1
     7    25    22    1
     8    29    26    1
     9    26    28    1
    10    26     3    1
    11    22    24    1
    12    22    23    1
    13    22     3    1
    14    39    38    1
    15     1     4    1
    16     1     3    1
    17     1     2    1
    18     4    38    1
    19     4    30    1
    20     3    18    1
    21     9     6    1
    22    38    40    1
    23    38    41    1
    24     7     6    1
    25    11    10    1
    26    33    30    1
    27     6     2    1
    28     6     8    1
    29    30    32    1
    30    30    31    1
    31     2    10    1
    32     2    14    1
    33    10    13    1
    34    10    12    1
    35    18    20    1
    36    18    19    1
    37    18    21    1
    38    17    14    1
    39    14    15    1
    40    14    16    1
