@<TRIPOS>MOLECULE
1
 17 16 0 0 0
SMALL
GASTEIGER

@<TRIPOS>ATOM
      1 O          11.9858   15.5636    4.8043 O.3     1  UNL1       -0.2342
      2 C          11.3161   16.1248    3.7204 C.3     1  UNL1        0.0877
      3 H          11.4683   17.2183    3.7608 H       1  UNL1        0.0597
      4 H          10.2276   15.9444    3.8031 H       1  UNL1        0.0597
      5 C          11.7902   15.6209    2.3377 C.3     1  UNL1       -0.0113
      6 C          13.3111   15.7508    2.2416 C.3     1  UNL1       -0.0579
      7 H          13.6228   16.7770    2.4290 H       1  UNL1        0.0236
      8 H          13.6551   15.4566    1.2521 H       1  UNL1        0.0236
      9 H          13.7751   15.0962    2.9802 H       1  UNL1        0.0236
     10 C          11.1219   16.4571    1.2438 C.3     1  UNL1       -0.0579
     11 H          10.0389   16.4191    1.3383 H       1  UNL1        0.0236
     12 H          11.3948   16.0772    0.2620 H       1  UNL1        0.0236
     13 H          11.4340   17.4971    1.3091 H       1  UNL1        0.0236
     14 C          11.3989   14.1507    2.1930 C.3     1  UNL1       -0.0579
     15 H          11.7056   13.6030    3.0931 H       1  UNL1        0.0236
     16 H          11.8895   13.7069    1.3313 H       1  UNL1        0.0236
     17 H          10.3229   14.0565    2.0585 H       1  UNL1        0.0236
@<TRIPOS>BOND
     1    12    10    1
     2    10    13    1
     3    10    11    1
     4    10     5    1
     5     8     6    1
     6    16    14    1
     7    17    14    1
     8    14     5    1
     9    14    15    1
    10     6     5    1
    11     6     7    1
    12     6     9    1
    13     5     2    1
    14     2     3    1
    15     2     4    1
    16     2     1    1
