@<TRIPOS>MOLECULE
1
 14 13 0 0 0
SMALL
GASTEIGER

@<TRIPOS>ATOM
      1 O           7.7461    2.3314    1.8528 O.3     1  UNL1       -0.2285
      2 C           6.4994    1.8525    2.2827 C.3     1  UNL1        0.0962
      3 C           6.3270    0.4019    1.7973 C.3     1  UNL1       -0.0333
      4 H           6.3610    0.3700    0.7118 H       1  UNL1        0.0258
      5 H           5.3783   -0.0032    2.1391 H       1  UNL1        0.0258
      6 H           7.1359   -0.2153    2.1810 H       1  UNL1        0.0258
      7 C           6.4245    1.9028    3.8229 C.3     1  UNL1       -0.0333
      8 H           7.0375    1.1201    4.2644 H       1  UNL1        0.0258
      9 H           5.4002    1.7672    4.1629 H       1  UNL1        0.0258
     10 H           6.7961    2.8805    4.1503 H       1  UNL1        0.0258
     11 C           5.3644    2.7272    1.7156 C.3     1  UNL1       -0.0333
     12 H           5.4683    3.7448    2.0982 H       1  UNL1        0.0258
     13 H           4.3938    2.3328    2.0094 H       1  UNL1        0.0258
     14 H           5.4163    2.7466    0.6289 H       1  UNL1        0.0258
@<TRIPOS>BOND
     1    14    11    1
     2     4     3    1
     3    11    13    1
     4    11    12    1
     5    11     2    1
     6     3     5    1
     7     3     6    1
     8     3     2    1
     9     1     2    1
    10     2     7    1
    11     7    10    1
    12     7     9    1
    13     7     8    1
