@<TRIPOS>MOLECULE
5
 41 41 0 0 0
SMALL
GASTEIGER

@<TRIPOS>ATOM
      1 SI          9.4524    4.6798   -0.6293 Si      1  UNL1        0.0000
      2 SI          7.7993    6.2693   -1.2034 Si      1  UNL1        0.0000
      3 SI         11.6758    5.4050   -0.9350 Si      1  UNL1        0.0000
      4 SI          9.0758    2.5362   -1.5606 Si      1  UNL1        0.0000
      5 O           9.2280    4.6107    0.9615 O.3     1  UNL1        0.0000
      6 C           6.2865    5.8290   -0.1058 C.3     1  UNL1        0.0000
      7 H           5.7572    4.9693   -0.5067 H       1  UNL1        0.0000
      8 H           5.5643    6.6329    0.0063 H       1  UNL1        0.0000
      9 H           6.6482    5.5601    0.8928 H       1  UNL1        0.0000
     10 C           8.2454    8.0988   -0.7954 C.3     1  UNL1        0.0000
     11 H           8.5636    8.2135    0.2372 H       1  UNL1        0.0000
     12 H           7.4069    8.7723   -0.9567 H       1  UNL1        0.0000
     13 H           9.0614    8.4445   -1.4237 H       1  UNL1        0.0000
     14 C           7.2174    6.2827   -3.0275 C.3     1  UNL1        0.0000
     15 H           8.0249    6.5913   -3.6825 H       1  UNL1        0.0000
     16 H           6.3945    6.9734   -3.1792 H       1  UNL1        0.0000
     17 H           6.8890    5.3034   -3.3583 H       1  UNL1        0.0000
     18 C          12.3072    6.7885    0.2443 C.3     1  UNL1        0.0000
     19 H          11.6415    7.6464    0.2252 H       1  UNL1        0.0000
     20 H          13.3009    7.1397   -0.0234 H       1  UNL1        0.0000
     21 H          12.3523    6.4340    1.2701 H       1  UNL1        0.0000
     22 C          11.8529    6.0909   -2.7125 C.3     1  UNL1        0.0000
     23 H          11.5785    5.3396   -3.4453 H       1  UNL1        0.0000
     24 H          12.8715    6.3977   -2.9269 H       1  UNL1        0.0000
     25 H          11.2110    6.9507   -2.8750 H       1  UNL1        0.0000
     26 C          12.9707    3.9896   -0.7737 C.3     1  UNL1        0.0000
     27 H          12.9625    3.5515    0.2203 H       1  UNL1        0.0000
     28 H          13.9821    4.3354   -0.9704 H       1  UNL1        0.0000
     29 H          12.7586    3.1919   -1.4794 H       1  UNL1        0.0000
     30 C           9.9196    2.4416   -3.2793 C.3     1  UNL1        0.0000
     31 H           9.5446    3.2196   -3.9360 H       1  UNL1        0.0000
     32 H           9.7323    1.4895   -3.7647 H       1  UNL1        0.0000
     33 H          10.9949    2.5661   -3.2115 H       1  UNL1        0.0000
     34 C           9.7450    1.0608   -0.5281 C.3     1  UNL1        0.0000
     35 H          10.8120    1.1545   -0.3443 H       1  UNL1        0.0000
     36 H           9.5789    0.0992   -1.0087 H       1  UNL1        0.0000
     37 H           9.2406    1.0415    0.4343 H       1  UNL1        0.0000
     38 C           7.2262    2.1402   -1.8989 C.3     1  UNL1        0.0000
     39 H           6.6723    2.1284   -0.9662 H       1  UNL1        0.0000
     40 H           7.0907    1.1725   -2.3757 H       1  UNL1        0.0000
     41 H           6.7708    2.8870   -2.5431 H       1  UNL1        0.0000
@<TRIPOS>BOND
     1    31    30    1
     2    32    30    1
     3    15    14    1
     4    23    22    1
     5    17    14    1
     6    30    33    1
     7    30     4    1
     8    16    14    1
     9    14     2    1
    10    24    22    1
    11    25    22    1
    12    22     3    1
    13    41    38    1
    14    40    38    1
    15    38     4    1
    16    38    39    1
    17     4     1    1
    18     4    34    1
    19    29    26    1
    20    13    10    1
    21     2    10    1
    22     2     1    1
    23     2     6    1
    24    36    34    1
    25    28    26    1
    26    12    10    1
    27     3    26    1
    28     3     1    1
    29     3    18    1
    30    10    11    1
    31    26    27    1
    32     1     5    1
    33    34    35    1
    34    34    37    1
    35     7     6    1
    36     6     8    1
    37     6     9    1
    38    20    18    1
    39    19    18    1
    40    18    21    1
    41     1     6    0
