@<TRIPOS>MOLECULE
1
 17 16 0 0 0
SMALL
GASTEIGER

@<TRIPOS>ATOM
      1 O          11.3915   12.4630    5.3380 O.3     1  UNL1       -0.2342
      2 C          10.3489   12.1202    6.1978 C.3     1  UNL1        0.0877
      3 H          10.6906   12.1464    7.2483 H       1  UNL1        0.0597
      4 H          10.0482   11.0823    5.9722 H       1  UNL1        0.0597
      5 C           9.0891   13.0127    6.0883 C.3     1  UNL1       -0.0113
      6 C           9.4344   14.4158    6.5874 C.3     1  UNL1       -0.0579
      7 H           9.6440   14.3931    7.6548 H       1  UNL1        0.0236
      8 H           8.6094   15.1028    6.4052 H       1  UNL1        0.0236
      9 H          10.3295   14.7845    6.0719 H       1  UNL1        0.0236
     10 C           8.6282   13.0784    4.6321 C.3     1  UNL1       -0.0579
     11 H           9.4305   13.4818    4.0198 H       1  UNL1        0.0236
     12 H           7.7523   13.7175    4.5381 H       1  UNL1        0.0236
     13 H           8.3735   12.0865    4.2648 H       1  UNL1        0.0236
     14 C           7.9762   12.4109    6.9501 C.3     1  UNL1       -0.0579
     15 H           7.7064   11.4193    6.5928 H       1  UNL1        0.0236
     16 H           7.0906   13.0413    6.9097 H       1  UNL1        0.0236
     17 H           8.2908   12.3277    7.9867 H       1  UNL1        0.0236
@<TRIPOS>BOND
     1    11    10    1
     2    13    10    1
     3    12    10    1
     4    10     5    1
     5     1     2    1
     6     4     2    1
     7     9     6    1
     8     5     2    1
     9     5     6    1
    10     5    14    1
    11     2     3    1
    12     8     6    1
    13     6     7    1
    14    15    14    1
    15    16    14    1
    16    14    17    1
