@<TRIPOS>MOLECULE
5
 41 40 0 0 0
SMALL
GASTEIGER

@<TRIPOS>ATOM
      1 SI         14.1783   11.6285    3.7258 Si      1  UNL1        0.0000
      2 SI         12.7088   10.5880    2.1916 Si      1  UNL1        0.0000
      3 SI         16.3448   11.8265    2.7933 Si      1  UNL1        0.0000
      4 SI         14.1203   10.5000    5.8165 Si      1  UNL1        0.0000
      5 O          13.7735   13.1192    4.1656 O.3     1  UNL1        0.0000
      6 C          13.0383   11.0790    0.3574 C.3     1  UNL1        0.0000
      7 H          13.0058   12.1531    0.2019 H       1  UNL1        0.0000
      8 H          12.3138   10.6297   -0.3163 H       1  UNL1        0.0000
      9 H          14.0213   10.7415    0.0439 H       1  UNL1        0.0000
     10 C          13.0929    8.7078    2.2487 C.3     1  UNL1        0.0000
     11 H          14.1534    8.5154    2.1260 H       1  UNL1        0.0000
     12 H          12.5732    8.1744    1.4587 H       1  UNL1        0.0000
     13 H          12.7921    8.2667    3.1928 H       1  UNL1        0.0000
     14 C          10.8167   10.7420    2.4893 C.3     1  UNL1        0.0000
     15 H          10.3288    9.7713    2.5194 H       1  UNL1        0.0000
     16 H          10.3186   11.3379    1.7300 H       1  UNL1        0.0000
     17 H          10.6488   11.2264    3.4453 H       1  UNL1        0.0000
     18 C          17.8791   12.0956    3.9382 C.3     1  UNL1        0.0000
     19 H          17.9838   13.1179    4.2904 H       1  UNL1        0.0000
     20 H          18.7978   11.8437    3.4145 H       1  UNL1        0.0000
     21 H          17.8268   11.4533    4.8121 H       1  UNL1        0.0000
     22 C          16.7644   10.1916    1.8938 C.3     1  UNL1        0.0000
     23 H          16.8033    9.3636    2.5939 H       1  UNL1        0.0000
     24 H          17.7295   10.2443    1.4004 H       1  UNL1        0.0000
     25 H          16.0269    9.9441    1.1385 H       1  UNL1        0.0000
     26 C          16.4629   13.2241    1.4751 C.3     1  UNL1        0.0000
     27 H          15.8411   12.9866    0.6174 H       1  UNL1        0.0000
     28 H          17.4749   13.3810    1.1100 H       1  UNL1        0.0000
     29 H          16.1046   14.1668    1.8788 H       1  UNL1        0.0000
     30 C          13.9216   11.8865    7.1323 C.3     1  UNL1        0.0000
     31 H          14.5459   11.7589    8.0137 H       1  UNL1        0.0000
     32 H          12.8890   11.9500    7.4735 H       1  UNL1        0.0000
     33 H          14.1923   12.8477    6.6734 H       1  UNL1        0.0000
     34 C          15.7265    9.5814    6.3445 C.3     1  UNL1        0.0000
     35 H          15.9925    8.8340    5.6055 H       1  UNL1        0.0000
     36 H          15.5976    9.0655    7.2907 H       1  UNL1        0.0000
     37 H          16.5753   10.2488    6.4505 H       1  UNL1        0.0000
     38 C          12.7190    9.2285    6.1432 C.3     1  UNL1        0.0000
     39 H          11.7785    9.5662    5.7210 H       1  UNL1        0.0000
     40 H          12.5636    9.0584    7.2059 H       1  UNL1        0.0000
     41 H          12.9562    8.2690    5.6944 H       1  UNL1        0.0000
@<TRIPOS>BOND
     1     8     6    1
     2     9     6    1
     3     7     6    1
     4     6     2    1
     5    27    26    1
     6    28    26    1
     7    25    22    1
     8    24    22    1
     9    12    10    1
    10    26    29    1
    11    26     3    1
    12    16    14    1
    13    22    23    1
    14    22     3    1
    15    11    10    1
    16     2    10    1
    17     2    14    1
    18     2     1    1
    19    10    13    1
    20    14    15    1
    21    14    17    1
    22     3     1    1
    23     3    18    1
    24    20    18    1
    25     1     5    1
    26     1     4    1
    27    18    19    1
    28    18    21    1
    29    35    34    1
    30    41    38    1
    31    39    38    1
    32     4    38    1
    33     4    34    1
    34     4    30    1
    35    38    40    1
    36    34    37    1
    37    34    36    1
    38    33    30    1
    39    30    32    1
    40    30    31    1
