@<TRIPOS>MOLECULE
1
 17 16 0 0 0
SMALL
GASTEIGER

@<TRIPOS>ATOM
      1 O           7.9730   11.4754   21.4610 O.3     1  UNL1       -0.2342
      2 C           7.8105   10.3882   20.6133 C.3     1  UNL1        0.0877
      3 C           7.9355    9.0186   21.3273 C.3     1  UNL1       -0.0113
      4 C           8.0268    7.8907   20.2966 C.3     1  UNL1       -0.0579
      5 H           7.1383    7.8595   19.6719 H       1  UNL1        0.0236
      6 H           8.1221    6.9317   20.8014 H       1  UNL1        0.0236
      7 H           8.8929    8.0256   19.6519 H       1  UNL1        0.0236
      8 C           9.2027    9.0360   22.1858 C.3     1  UNL1       -0.0579
      9 H          10.0880    8.9468   21.5595 H       1  UNL1        0.0236
     10 H           9.2056    8.2104   22.8946 H       1  UNL1        0.0236
     11 H           9.2547    9.9861   22.7238 H       1  UNL1        0.0236
     12 C           6.6972    8.8265   22.2054 C.3     1  UNL1       -0.0579
     13 H           6.5415    9.7170   22.8302 H       1  UNL1        0.0236
     14 H           6.8113    7.9527   22.8452 H       1  UNL1        0.0236
     15 H           5.8158    8.6867   21.5833 H       1  UNL1        0.0236
     16 H           8.5860   10.4454   19.8281 H       1  UNL1        0.0597
     17 H           6.8263   10.4306   20.1093 H       1  UNL1        0.0597
@<TRIPOS>BOND
     1     7     4    1
     2     5     4    1
     3    16     2    1
     4    17     2    1
     5     4     6    1
     6     4     3    1
     7     2     3    1
     8     2     1    1
     9     3     8    1
    10     3    12    1
    11     9     8    1
    12    15    12    1
    13     8    11    1
    14     8    10    1
    15    12    13    1
    16    12    14    1
