@<TRIPOS>MOLECULE
5
 41 40 0 0 0
SMALL
GASTEIGER

@<TRIPOS>ATOM
      1 SI         16.8522    5.7840    4.4721 Si      1  UNL1        0.0000
      2 SI         16.9205    8.1751    4.5601 Si      1  UNL1        0.0000
      3 SI         14.7542    4.7321    3.9484 Si      1  UNL1        0.0000
      4 SI         18.4922    4.9006    2.9823 Si      1  UNL1        0.0000
      5 O          17.0762    5.2055    5.9736 O.3     1  UNL1        0.0000
      6 C          18.3827    8.8339    3.4925 C.3     1  UNL1        0.0000
      7 H          19.3543    8.6113    3.9222 H       1  UNL1        0.0000
      8 H          18.3168    9.9130    3.3902 H       1  UNL1        0.0000
      9 H          18.3609    8.4163    2.4911 H       1  UNL1        0.0000
     10 C          17.0706    9.0750    6.2465 C.3     1  UNL1        0.0000
     11 H          16.3707    9.9017    6.3389 H       1  UNL1        0.0000
     12 H          18.0703    9.4708    6.4054 H       1  UNL1        0.0000
     13 H          16.8639    8.3794    7.0591 H       1  UNL1        0.0000
     14 C          15.3785    8.8885    3.6611 C.3     1  UNL1        0.0000
     15 H          15.2754    8.4608    2.6689 H       1  UNL1        0.0000
     16 H          15.4716    9.9635    3.5396 H       1  UNL1        0.0000
     17 H          14.4546    8.7005    4.1971 H       1  UNL1        0.0000
     18 C          13.5006    5.8272    2.9990 C.3     1  UNL1        0.0000
     19 H          13.1998    6.7065    3.5572 H       1  UNL1        0.0000
     20 H          12.6019    5.2673    2.7588 H       1  UNL1        0.0000
     21 H          13.9279    6.1674    2.0617 H       1  UNL1        0.0000
     22 C          13.8499    4.0633    5.5090 C.3     1  UNL1        0.0000
     23 H          14.5096    4.1365    6.3733 H       1  UNL1        0.0000
     24 H          13.5573    3.0204    5.4111 H       1  UNL1        0.0000
     25 H          12.9583    4.6359    5.7439 H       1  UNL1        0.0000
     26 C          14.9086    3.1694    2.8213 C.3     1  UNL1        0.0000
     27 H          15.3620    3.4152    1.8668 H       1  UNL1        0.0000
     28 H          13.9263    2.7547    2.6099 H       1  UNL1        0.0000
     29 H          15.5028    2.3780    3.2693 H       1  UNL1        0.0000
     30 C          20.2998    5.5632    2.9759 C.3     1  UNL1        0.0000
     31 H          20.3133    6.6383    2.8272 H       1  UNL1        0.0000
     32 H          20.8693    5.1224    2.1605 H       1  UNL1        0.0000
     33 H          20.8350    5.3542    3.8967 H       1  UNL1        0.0000
     34 C          17.8149    5.4174    1.2664 C.3     1  UNL1        0.0000
     35 H          16.7840    5.1104    1.1246 H       1  UNL1        0.0000
     36 H          18.3985    4.9856    0.4601 H       1  UNL1        0.0000
     37 H          17.8453    6.4950    1.1441 H       1  UNL1        0.0000
     38 C          18.6774    2.9808    2.8983 C.3     1  UNL1        0.0000
     39 H          18.8590    2.5429    3.8754 H       1  UNL1        0.0000
     40 H          19.5026    2.6860    2.2545 H       1  UNL1        0.0000
     41 H          17.7789    2.5225    2.4973 H       1  UNL1        0.0000
@<TRIPOS>BOND
     1    36    34    1
     2    35    34    1
     3    37    34    1
     4    34     4    1
     5    27    26    1
     6    21    18    1
     7    32    30    1
     8    40    38    1
     9     9     6    1
    10    41    38    1
    11    28    26    1
    12    15    14    1
    13    20    18    1
    14    26    29    1
    15    26     3    1
    16    31    30    1
    17    38     4    1
    18    38    39    1
    19    30     4    1
    20    30    33    1
    21     4     1    1
    22    18    19    1
    23    18     3    1
    24     8     6    1
    25     6     7    1
    26     6     2    1
    27    16    14    1
    28    14    17    1
    29    14     2    1
    30     3     1    1
    31     3    22    1
    32     1     2    1
    33     1     5    1
    34     2    10    1
    35    24    22    1
    36    22    25    1
    37    22    23    1
    38    10    11    1
    39    10    12    1
    40    10    13    1
