@<TRIPOS>MOLECULE
1
 13 13 0 0 0
SMALL
GASTEIGER

@<TRIPOS>ATOM
      1 O           9.3954   12.5354    2.7896 O.3     1  UNL1       -0.3798
      2 C          10.2519   11.3737    2.8525 C.3     1  UNL1        0.0477
      3 H          10.3113   11.0461    3.8960 H       1  UNL1        0.0560
      4 H          11.2477   11.6567    2.5052 H       1  UNL1        0.0560
      5 C           9.6013   10.2976    1.9889 C.3     1  UNL1       -0.0274
      6 H           9.8375    9.2981    2.3437 H       1  UNL1        0.0288
      7 H           9.9201   10.3912    0.9502 H       1  UNL1        0.0288
      8 C           8.1239   10.6494    2.1240 C.3     1  UNL1       -0.0274
      9 H           7.5094   10.2490    1.3219 H       1  UNL1        0.0288
     10 H           7.7390   10.3028    3.0825 H       1  UNL1        0.0288
     11 C           8.1786   12.1708    2.1047 C.3     1  UNL1        0.0477
     12 H           8.2302   12.5485    1.0760 H       1  UNL1        0.0560
     13 H           7.3350   12.6343    2.6222 H       1  UNL1        0.0560
@<TRIPOS>BOND
     1     7     5    1
     2    12    11    1
     3     9     8    1
     4     5     8    1
     5     5     6    1
     6     5     2    1
     7    11     8    1
     8    11    13    1
     9    11     1    1
    10     8    10    1
    11     4     2    1
    12     1     2    1
    13     2     3    1
