@<TRIPOS>MOLECULE
1
 13 13 0 0 0
SMALL
GASTEIGER

@<TRIPOS>ATOM
      1 O          11.1425    8.0668    5.6047 O.3     1  UNL1       -0.3798
      2 C          11.0899    6.6954    5.2289 C.3     1  UNL1        0.0477
      3 H          12.0214    6.4479    4.7253 H       1  UNL1        0.0560
      4 H          10.2517    6.5311    4.5390 H       1  UNL1        0.0560
      5 C          10.8690    5.9247    6.5354 C.3     1  UNL1       -0.0274
      6 H          11.8245    5.6672    6.9911 H       1  UNL1        0.0288
      7 H          10.3083    5.0076    6.3672 H       1  UNL1        0.0288
      8 C          10.1060    6.9336    7.4085 C.3     1  UNL1       -0.0274
      9 H           9.0919    6.6048    7.6282 H       1  UNL1        0.0288
     10 H          10.6240    7.1006    8.3507 H       1  UNL1        0.0288
     11 C          10.0911    8.2120    6.5543 C.3     1  UNL1        0.0477
     12 H           9.1341    8.3049    6.0247 H       1  UNL1        0.0560
     13 H          10.2719    9.1252    7.1248 H       1  UNL1        0.0560
@<TRIPOS>BOND
     1     4     2    1
     2     3     2    1
     3     2     1    1
     4     2     5    1
     5     1    11    1
     6    12    11    1
     7     7     5    1
     8     5     6    1
     9     5     8    1
    10    11    13    1
    11    11     8    1
    12     8     9    1
    13     8    10    1
