@<TRIPOS>MOLECULE
1
 13 13 0 0 0
SMALL
GASTEIGER

@<TRIPOS>ATOM
      1 O           6.4656    3.4358   15.9226 O.3     1  UNL1       -0.3798
      2 C           5.4776    2.6381   15.2515 C.3     1  UNL1        0.0477
      3 H           4.7420    3.3135   14.7977 H       1  UNL1        0.0560
      4 H           4.9817    2.0046   15.9996 H       1  UNL1        0.0560
      5 C           6.2356    1.7868   14.2395 C.3     1  UNL1       -0.0274
      6 H           5.7094    0.8670   13.9951 H       1  UNL1        0.0288
      7 H           6.4105    2.3519   13.3235 H       1  UNL1        0.0288
      8 C           7.5529    1.5525   14.9731 C.3     1  UNL1       -0.0274
      9 H           8.3732    1.2911   14.3087 H       1  UNL1        0.0288
     10 H           7.4338    0.7691   15.7230 H       1  UNL1        0.0288
     11 C           7.7695    2.9017   15.6501 C.3     1  UNL1        0.0477
     12 H           8.3109    2.8249   16.5974 H       1  UNL1        0.0560
     13 H           8.2993    3.5995   14.9869 H       1  UNL1        0.0560
@<TRIPOS>BOND
     1     7     5    1
     2     6     5    1
     3     5     8    1
     4     5     2    1
     5     9     8    1
     6     3     2    1
     7     8    11    1
     8     8    10    1
     9    13    11    1
    10     2     1    1
    11     2     4    1
    12    11     1    1
    13    11    12    1
