@<TRIPOS>MOLECULE
1
 13 13 0 0 0
SMALL
GASTEIGER

@<TRIPOS>ATOM
      1 O           4.9679    7.2480    7.0681 O.3     1  UNL1       -0.3798
      2 C           4.3778    6.5701    8.1795 C.3     1  UNL1        0.0477
      3 H           3.4642    6.0775    7.8469 H       1  UNL1        0.0560
      4 H           4.1424    7.2937    8.9732 H       1  UNL1        0.0560
      5 C           5.4522    5.5942    8.6512 C.3     1  UNL1       -0.0274
      6 H           5.3067    5.2927    9.6853 H       1  UNL1        0.0288
      7 H           5.4429    4.7060    8.0207 H       1  UNL1        0.0288
      8 C           6.7385    6.4007    8.4390 C.3     1  UNL1       -0.0274
      9 H           7.0915    6.8351    9.3732 H       1  UNL1        0.0288
     10 H           7.5353    5.7850    8.0283 H       1  UNL1        0.0288
     11 C           6.3180    7.5108    7.4581 C.3     1  UNL1        0.0477
     12 H           6.3712    8.4955    7.9408 H       1  UNL1        0.0560
     13 H           6.9239    7.5336    6.5504 H       1  UNL1        0.0560
@<TRIPOS>BOND
     1    13    11    1
     2     1    11    1
     3     1     2    1
     4    11    12    1
     5    11     8    1
     6     3     2    1
     7     7     5    1
     8    10     8    1
     9     2     5    1
    10     2     4    1
    11     8     5    1
    12     8     9    1
    13     5     6    1
