@<TRIPOS>MOLECULE
1
 13 13 0 0 0
SMALL
GASTEIGER

@<TRIPOS>ATOM
      1 O           4.4658   14.2407    5.0504 O.3     1  UNL1       -0.3798
      2 C           4.6850   14.0446    3.6546 C.3     1  UNL1        0.0477
      3 H           3.8038   13.5607    3.2096 H       1  UNL1        0.0560
      4 H           5.5513   13.3985    3.5214 H       1  UNL1        0.0560
      5 C           4.8653   15.4531    3.0841 C.3     1  UNL1       -0.0274
      6 H           4.5786   15.5039    2.0364 H       1  UNL1        0.0288
      7 H           5.9057   15.7645    3.1744 H       1  UNL1        0.0288
      8 C           3.9654   16.3073    3.9910 C.3     1  UNL1       -0.0274
      9 H           4.5063   17.1622    4.3914 H       1  UNL1        0.0288
     10 H           3.0876   16.6748    3.4625 H       1  UNL1        0.0288
     11 C           3.5560   15.3354    5.1111 C.3     1  UNL1        0.0477
     12 H           3.6109   15.7689    6.1109 H       1  UNL1        0.0560
     13 H           2.5381   14.9632    4.9343 H       1  UNL1        0.0560
@<TRIPOS>BOND
     1     6     5    1
     2     5     7    1
     3     5     2    1
     4     5     8    1
     5     3     2    1
     6    10     8    1
     7     4     2    1
     8     2     1    1
     9     8     9    1
    10     8    11    1
    11    13    11    1
    12     1    11    1
    13    11    12    1
