@<TRIPOS>MOLECULE
1
 13 13 0 0 0
SMALL
GASTEIGER

@<TRIPOS>ATOM
      1 O           7.5203   13.6799    5.6023 O.3     1  UNL1       -0.3798
      2 C           8.2392   14.8766    5.8783 C.3     1  UNL1        0.0477
      3 H           7.9347   15.2358    6.8594 H       1  UNL1        0.0560
      4 H           7.9876   15.6328    5.1198 H       1  UNL1        0.0560
      5 C           9.7198   14.4959    5.7803 C.3     1  UNL1       -0.0274
      6 H          10.0894   14.1609    6.7483 H       1  UNL1        0.0288
      7 H          10.3251   15.3381    5.4527 H       1  UNL1        0.0288
      8 C           9.7143   13.3364    4.7704 C.3     1  UNL1       -0.0274
      9 H          10.2465   13.5839    3.8545 H       1  UNL1        0.0288
     10 H          10.1637   12.4414    5.1966 H       1  UNL1        0.0288
     11 C           8.2190   13.1136    4.4920 C.3     1  UNL1        0.0477
     12 H           7.9251   13.6423    3.5735 H       1  UNL1        0.0560
     13 H           7.9493   12.0624    4.4027 H       1  UNL1        0.0560
@<TRIPOS>BOND
     1    12    11    1
     2     9     8    1
     3    13    11    1
     4    11     8    1
     5    11     1    1
     6     8    10    1
     7     8     5    1
     8     4     2    1
     9     7     5    1
    10     1     2    1
    11     5     2    1
    12     5     6    1
    13     2     3    1
