@<TRIPOS>MOLECULE
1
 35 37 0 0 0
SMALL
GASTEIGER

@<TRIPOS>ATOM
      1 O           7.9174   13.4910    8.0278 O.3     1  UNL1        0.0000
      2 SI          9.0531   14.6475    8.1024 Si      1  UNL1        0.0000
      3 C           8.1918   16.2952    8.5015 C.ar    1  UNL1        0.0000
      4 C           8.8202   17.3076    9.2208 C.ar    1  UNL1        0.0000
      5 H           9.8376   17.1644    9.5545 H       1  UNL1        0.0000
      6 C           8.1597   18.4874    9.5162 C.ar    1  UNL1        0.0000
      7 H           8.6637   19.2611   10.0764 H       1  UNL1        0.0000
      8 C           6.8531   18.6791    9.0968 C.ar    1  UNL1        0.0000
      9 H           6.3374   19.5982    9.3319 H       1  UNL1        0.0000
     10 C           6.2149   17.6884    8.3689 C.ar    1  UNL1        0.0000
     11 H           5.1983   17.8275    8.0267 H       1  UNL1        0.0000
     12 C           6.8859   16.5153    8.0748 C.ar    1  UNL1        0.0000
     13 H           6.3946   15.7457    7.4957 H       1  UNL1        0.0000
     14 C          10.3644   14.3210    9.4404 C.ar    1  UNL1        0.0000
     15 C          10.1185   14.6030   10.7815 C.ar    1  UNL1        0.0000
     16 H           9.1433   14.9613   11.0772 H       1  UNL1        0.0000
     17 C          11.1001   14.4341   11.7422 C.ar    1  UNL1        0.0000
     18 H          10.8871   14.6611   12.7769 H       1  UNL1        0.0000
     19 C          12.3565   13.9798   11.3771 C.ar    1  UNL1        0.0000
     20 H          13.1258   13.8510   12.1239 H       1  UNL1        0.0000
     21 C          12.6217   13.6981   10.0472 C.ar    1  UNL1        0.0000
     22 H          13.6009   13.3484    9.7543 H       1  UNL1        0.0000
     23 C          11.6357   13.8711    9.0916 C.ar    1  UNL1        0.0000
     24 H          11.8548   13.6606    8.0546 H       1  UNL1        0.0000
     25 C           9.8896   14.6861    6.3999 C.ar    1  UNL1        0.0000
     26 C           9.8126   13.5637    5.5786 C.ar    1  UNL1        0.0000
     27 H           9.2442   12.7096    5.9308 H       1  UNL1        0.0000
     28 C          10.4390   13.5390    4.3457 C.ar    1  UNL1        0.0000
     29 H          10.3772   12.6598    3.7202 H       1  UNL1        0.0000
     30 C          11.1563   14.6429    3.9137 C.ar    1  UNL1        0.0000
     31 H          11.6492   14.6262    2.9530 H       1  UNL1        0.0000
     32 C          11.2415   15.7671    4.7182 C.ar    1  UNL1        0.0000
     33 H          11.8011   16.6283    4.3839 H       1  UNL1        0.0000
     34 C          10.6142   15.7858    5.9512 C.ar    1  UNL1        0.0000
     35 H          10.6849   16.6627    6.5781 H       1  UNL1        0.0000
@<TRIPOS>BOND
     1    31    30    1
     2    29    28    1
     3    30    28   ar
     4    30    32   ar
     5    28    26   ar
     6    33    32    1
     7    32    34   ar
     8    26    27    1
     9    26    25   ar
    10    34    25   ar
    11    34    35    1
    12    25     2    1
    13    13    12    1
    14    11    10    1
    15     1     2    1
    16    24    23    1
    17    12    10   ar
    18    12     3   ar
    19     2     3    1
    20     2    14    1
    21    10     8   ar
    22     3     4   ar
    23    23    14   ar
    24    23    21   ar
    25     8     9    1
    26     8     6   ar
    27     4     6   ar
    28     4     5    1
    29    14    15   ar
    30     6     7    1
    31    22    21    1
    32    21    19   ar
    33    15    16    1
    34    15    17   ar
    35    19    17   ar
    36    19    20    1
    37    17    18    1
