@<TRIPOS>MOLECULE
1
 13 13 0 0 0
SMALL
GASTEIGER

@<TRIPOS>ATOM
      1 O           6.6614   19.3986    0.7206 O.3     1  UNL1       -0.3798
      2 C           5.6342   18.5965    0.1205 C.3     1  UNL1        0.0477
      3 H           4.7589   18.5995    0.7837 H       1  UNL1        0.0560
      4 H           6.0014   17.5693    0.0163 H       1  UNL1        0.0560
      5 C           5.2964   19.2397   -1.2232 C.3     1  UNL1       -0.0274
      6 H           4.2548   19.0919   -1.4985 H       1  UNL1        0.0288
      7 H           5.9310   18.8299   -2.0095 H       1  UNL1        0.0288
      8 C           5.6528   20.7011   -0.9672 C.3     1  UNL1       -0.0274
      9 H           4.8648   21.1990   -0.4022 H       1  UNL1        0.0288
     10 H           5.8487   21.2617   -1.8774 H       1  UNL1        0.0288
     11 C           6.8962   20.5509   -0.1024 C.3     1  UNL1        0.0477
     12 H           7.7837   20.3751   -0.7255 H       1  UNL1        0.0560
     13 H           7.0764   21.4092    0.5487 H       1  UNL1        0.0560
@<TRIPOS>BOND
     1     7     5    1
     2    10     8    1
     3     6     5    1
     4     5     8    1
     5     5     2    1
     6     8     9    1
     7     8    11    1
     8    12    11    1
     9    11    13    1
    10    11     1    1
    11     4     2    1
    12     2     1    1
    13     2     3    1
