@<TRIPOS>MOLECULE
1
 13 13 0 0 0
SMALL
GASTEIGER

@<TRIPOS>ATOM
      1 O           6.5063    4.2480    6.0487 O.3     1  UNL1       -0.3798
      2 C           7.9071    4.4957    6.1398 C.3     1  UNL1        0.0477
      3 H           8.2433    4.9191    5.1916 H       1  UNL1        0.0560
      4 H           8.4291    3.5475    6.3195 H       1  UNL1        0.0560
      5 C           8.0811    5.4425    7.3369 C.3     1  UNL1       -0.0274
      6 H           9.0019    5.2285    7.8754 H       1  UNL1        0.0288
      7 H           8.1121    6.4810    7.0093 H       1  UNL1        0.0288
      8 C           6.8281    5.1753    8.1898 C.3     1  UNL1       -0.0274
      9 H           6.2082    6.0681    8.2630 H       1  UNL1        0.0288
     10 H           7.0748    4.8423    9.1953 H       1  UNL1        0.0288
     11 C           6.0895    4.0831    7.4061 C.3     1  UNL1        0.0477
     12 H           6.3845    3.0854    7.7520 H       1  UNL1        0.0560
     13 H           5.0042    4.1834    7.4479 H       1  UNL1        0.0560
@<TRIPOS>BOND
     1     3     2    1
     2     1     2    1
     3     1    11    1
     4     2     4    1
     5     2     5    1
     6     7     5    1
     7     5     6    1
     8     5     8    1
     9    11    13    1
    10    11    12    1
    11    11     8    1
    12     8     9    1
    13     8    10    1
