@<TRIPOS>MOLECULE
1
 15 14 0 0 0
SMALL
GASTEIGER

@<TRIPOS>ATOM
      1 O          -0.8425    5.3976    5.2145 O.3     1  UNL1       -0.3803
      2 C          -0.9248    4.5665    6.3700 C.3     1  UNL1        0.0448
      3 H          -1.6848    4.9726    7.0544 H       1  UNL1        0.0557
      4 H           0.0573    4.6431    6.8477 H       1  UNL1        0.0557
      5 C          -1.2332    3.1013    6.0771 C.3     1  UNL1       -0.0416
      6 H          -2.2469    2.9746    5.7059 H       1  UNL1        0.0252
      7 H          -1.1327    2.5288    6.9950 H       1  UNL1        0.0252
      8 H          -0.5361    2.7077    5.3427 H       1  UNL1        0.0252
      9 C          -2.0991    5.5661    4.5563 C.3     1  UNL1        0.0448
     10 H          -2.8637    5.8157    5.3072 H       1  UNL1        0.0557
     11 H          -2.3872    4.6302    4.0607 H       1  UNL1        0.0557
     12 C          -1.9905    6.6786    3.5259 C.3     1  UNL1       -0.0416
     13 H          -1.7245    7.6168    4.0158 H       1  UNL1        0.0252
     14 H          -2.9495    6.8043    3.0274 H       1  UNL1        0.0252
     15 H          -1.2410    6.4225    2.7710 H       1  UNL1        0.0252
@<TRIPOS>BOND
     1    15    12    1
     2    14    12    1
     3    12    13    1
     4    12     9    1
     5    11     9    1
     6     9     1    1
     7     9    10    1
     8     1     2    1
     9     8     5    1
    10     6     5    1
    11     5     2    1
    12     5     7    1
    13     2     4    1
    14     2     3    1
