@<TRIPOS>MOLECULE
1
 13 13 0 0 0
SMALL
GASTEIGER

@<TRIPOS>ATOM
      1 O           6.0926   16.9373    3.4619 O.3     1  UNL1       -0.3798
      2 C           6.5041   15.5605    3.4745 C.3     1  UNL1        0.0477
      3 H           7.2838   15.4292    4.2345 H       1  UNL1        0.0560
      4 H           6.9111   15.3215    2.4888 H       1  UNL1        0.0560
      5 C           5.2611   14.7577    3.8331 C.3     1  UNL1       -0.0274
      6 H           5.5063   13.7860    4.2533 H       1  UNL1        0.0288
      7 H           4.6301   14.6184    2.9543 H       1  UNL1        0.0288
      8 C           4.5894   15.6911    4.8357 C.3     1  UNL1       -0.0274
      9 H           3.5207   15.5162    4.9348 H       1  UNL1        0.0288
     10 H           5.0592   15.5854    5.8126 H       1  UNL1        0.0288
     11 C           4.8942   17.0683    4.2496 C.3     1  UNL1        0.0477
     12 H           4.0870   17.3983    3.5830 H       1  UNL1        0.0560
     13 H           5.0589   17.8278    5.0193 H       1  UNL1        0.0560
@<TRIPOS>BOND
     1     4     2    1
     2     7     5    1
     3     1     2    1
     4     1    11    1
     5     2     5    1
     6     2     3    1
     7    12    11    1
     8     5     6    1
     9     5     8    1
    10    11     8    1
    11    11    13    1
    12     8     9    1
    13     8    10    1
