@<TRIPOS>MOLECULE
3
 14 13 0 0 0
SMALL
GASTEIGER

@<TRIPOS>ATOM
      1 CL         14.5197    1.7056    9.0335 Cl      1  UNL1        0.0000
      2 SI         12.4853   -0.1966    7.7670 Si      1  UNL1        0.0000
      3 O          10.9557   -0.1828    7.2618 O.3     1  UNL1        0.0000
      4 C          12.8198    1.5483    8.5330 C.3     1  UNL1        0.0000
      5 H          12.6329    2.3600    7.8314 H       1  UNL1        0.0000
      6 H          12.2164    1.7152    9.4242 H       1  UNL1        0.0000
      7 C          12.7473   -1.4928    9.1456 C.3     1  UNL1        0.0000
      8 H          13.7166   -1.3648    9.6154 H       1  UNL1        0.0000
      9 H          12.7015   -2.5072    8.7590 H       1  UNL1        0.0000
     10 H          11.9864   -1.3872    9.9162 H       1  UNL1        0.0000
     11 C          13.6387   -0.4641    6.2713 C.3     1  UNL1        0.0000
     12 H          13.5438   -1.4699    5.8739 H       1  UNL1        0.0000
     13 H          14.6718   -0.3204    6.5659 H       1  UNL1        0.0000
     14 H          13.4211    0.2323    5.4662 H       1  UNL1        0.0000
@<TRIPOS>BOND
     1    14    11    1
     2    12    11    1
     3    11    13    1
     4    11     2    1
     5     3     2    1
     6     2     4    1
     7     2     7    1
     8     5     4    1
     9     4     1    1
    10     4     6    1
    11     9     7    1
    12     7     8    1
    13     7    10    1
