@<TRIPOS>MOLECULE
1
 13 13 0 0 0
SMALL
GASTEIGER

@<TRIPOS>ATOM
      1 O           2.1221    4.7294    2.8329 O.3     1  UNL1       -0.3798
      2 C           2.5972    5.5889    1.7896 C.3     1  UNL1        0.0477
      3 H           3.3664    5.0503    1.2353 H       1  UNL1        0.0560
      4 H           3.0447    6.4866    2.2356 H       1  UNL1        0.0560
      5 C           1.3754    5.9589    0.9572 C.3     1  UNL1       -0.0274
      6 H           1.1384    5.1603    0.2536 H       1  UNL1        0.0288
      7 H           1.5127    6.8873    0.4089 H       1  UNL1        0.0288
      8 C           0.3038    6.0499    2.0399 C.3     1  UNL1       -0.0274
      9 H          -0.7067    5.9320    1.6559 H       1  UNL1        0.0288
     10 H           0.3746    7.0060    2.5597 H       1  UNL1        0.0288
     11 C           0.7055    4.9022    2.9660 C.3     1  UNL1        0.0477
     12 H           0.4706    5.0976    4.0157 H       1  UNL1        0.0560
     13 H           0.2131    3.9708    2.6636 H       1  UNL1        0.0560
@<TRIPOS>BOND
     1     6     5    1
     2     7     5    1
     3     5     2    1
     4     5     8    1
     5     3     2    1
     6     9     8    1
     7     2     4    1
     8     2     1    1
     9     8    10    1
    10     8    11    1
    11    13    11    1
    12     1    11    1
    13    11    12    1
