@<TRIPOS>MOLECULE
1
 13 13 0 0 0
SMALL
GASTEIGER

@<TRIPOS>ATOM
      1 O           6.8750    4.7731    6.2376 O.3     1  UNL1       -0.3798
      2 C           5.7867    3.8415    6.0768 C.3     1  UNL1        0.0477
      3 H           5.5235    3.4686    7.0750 H       1  UNL1        0.0560
      4 H           6.1220    3.0066    5.4522 H       1  UNL1        0.0560
      5 C           4.6207    4.6009    5.4311 C.3     1  UNL1       -0.0274
      6 H           4.5916    4.4164    4.3568 H       1  UNL1        0.0288
      7 H           3.6639    4.3140    5.8593 H       1  UNL1        0.0288
      8 C           4.9765    6.0607    5.7055 C.3     1  UNL1       -0.0274
      9 H           4.6657    6.3469    6.7104 H       1  UNL1        0.0288
     10 H           4.5404    6.7476    4.9849 H       1  UNL1        0.0288
     11 C           6.4975    6.0124    5.6242 C.3     1  UNL1        0.0477
     12 H           6.8299    6.0163    4.5762 H       1  UNL1        0.0560
     13 H           6.9975    6.8184    6.1686 H       1  UNL1        0.0560
@<TRIPOS>BOND
     1     6     5    1
     2    12    11    1
     3    10     8    1
     4     5     8    1
     5     5     7    1
     6     5     2    1
     7     4     2    1
     8    11     8    1
     9    11    13    1
    10    11     1    1
    11     8     9    1
    12     2     1    1
    13     2     3    1
