@<TRIPOS>MOLECULE
1
 13 13 0 0 0
SMALL
GASTEIGER

@<TRIPOS>ATOM
      1 O           6.0122   10.0928    3.0241 O.3     1  UNL1       -0.3798
      2 C           7.1125    9.1908    3.2327 C.3     1  UNL1        0.0477
      3 H           7.3778    8.7710    2.2574 H       1  UNL1        0.0560
      4 H           6.7923    8.3816    3.8970 H       1  UNL1        0.0560
      5 C           8.2673   10.0010    3.8411 C.3     1  UNL1       -0.0274
      6 H           8.3534    9.8002    4.9089 H       1  UNL1        0.0288
      7 H           9.2175    9.7694    3.3672 H       1  UNL1        0.0288
      8 C           7.8333   11.4480    3.6082 C.3     1  UNL1       -0.0274
      9 H           8.1214   11.7774    2.6102 H       1  UNL1        0.0288
     10 H           8.2381   12.1369    4.3446 H       1  UNL1        0.0288
     11 C           6.3175   11.3180    3.6937 C.3     1  UNL1        0.0477
     12 H           5.7717   12.1154    3.1882 H       1  UNL1        0.0560
     13 H           5.9898   11.2582    4.7402 H       1  UNL1        0.0560
@<TRIPOS>BOND
     1     3     2    1
     2     9     8    1
     3     1     2    1
     4     1    11    1
     5    12    11    1
     6     2     5    1
     7     2     4    1
     8     7     5    1
     9     8    11    1
    10     8     5    1
    11     8    10    1
    12    11    13    1
    13     5     6    1
