@<TRIPOS>MOLECULE
1
 41 40 0 0 0
SMALL
GASTEIGER

@<TRIPOS>ATOM
      1 O           5.7359    7.1898   -0.0731 O.3     1  UNL1        0.0000
      2 SI          5.8858    8.6051   -0.8360 Si      1  UNL1        0.0000
      3 C           4.0885    9.3576   -1.0903 C.3     1  UNL1        0.0000
      4 C           3.1375    8.2093   -1.4441 C.3     1  UNL1        0.0000
      5 H           2.1010    8.5381   -1.3564 H       1  UNL1        0.0000
      6 H           3.2929    7.3490   -0.7780 H       1  UNL1        0.0000
      7 H           3.2912    7.8920   -2.4699 H       1  UNL1        0.0000
      8 C           3.5408   10.0053    0.1858 C.3     1  UNL1        0.0000
      9 H           2.4948   10.2802    0.0399 H       1  UNL1        0.0000
     10 H           4.0816   10.9137    0.4307 H       1  UNL1        0.0000
     11 H           3.5926    9.3227    1.0311 H       1  UNL1        0.0000
     12 C           4.0035   10.4157   -2.1948 C.3     1  UNL1        0.0000
     13 H           2.9814   10.7866   -2.2780 H       1  UNL1        0.0000
     14 H           4.2889   10.0129   -3.1610 H       1  UNL1        0.0000
     15 H           4.6510   11.2601   -1.9780 H       1  UNL1        0.0000
     16 C           6.7501    8.1623   -2.5442 C.3     1  UNL1        0.0000
     17 C           5.7448    7.5311   -3.5123 C.3     1  UNL1        0.0000
     18 H           6.2669    7.1011   -4.3682 H       1  UNL1        0.0000
     19 H           5.0426    8.2652   -3.8952 H       1  UNL1        0.0000
     20 H           5.1941    6.7394   -3.0134 H       1  UNL1        0.0000
     21 C           7.8262    7.1005   -2.2938 C.3     1  UNL1        0.0000
     22 H           8.2524    6.7639   -3.2397 H       1  UNL1        0.0000
     23 H           7.3905    6.2420   -1.7844 H       1  UNL1        0.0000
     24 H           8.6323    7.4906   -1.6826 H       1  UNL1        0.0000
     25 C           7.3953    9.3541   -3.2507 C.3     1  UNL1        0.0000
     26 H           7.7874    9.0467   -4.2208 H       1  UNL1        0.0000
     27 H           8.2226    9.7538   -2.6721 H       1  UNL1        0.0000
     28 H           6.6749   10.1502   -3.4143 H       1  UNL1        0.0000
     29 C           6.9604    9.8156    0.2772 C.3     1  UNL1        0.0000
     30 C           8.4100    9.3275    0.3460 C.3     1  UNL1        0.0000
     31 H           8.9845    9.9432    1.0398 H       1  UNL1        0.0000
     32 H           8.8915    9.3942   -0.6248 H       1  UNL1        0.0000
     33 H           8.4520    8.2980    0.6831 H       1  UNL1        0.0000
     34 C           6.9953   11.2572   -0.2356 C.3     1  UNL1        0.0000
     35 H           7.6196   11.8676    0.4177 H       1  UNL1        0.0000
     36 H           6.0036   11.6981   -0.2532 H       1  UNL1        0.0000
     37 H           7.4065   11.3085   -1.2387 H       1  UNL1        0.0000
     38 C           6.4105    9.8313    1.7138 C.3     1  UNL1        0.0000
     39 H           7.2030   10.0735    2.4218 H       1  UNL1        0.0000
     40 H           5.9879    8.8652    1.9823 H       1  UNL1        0.0000
     41 H           5.6355   10.5816    1.8291 H       1  UNL1        0.0000
@<TRIPOS>BOND
     1    18    17    1
     2    26    25    1
     3    19    17    1
     4    17    20    1
     5    17    16    1
     6    28    25    1
     7    25    27    1
     8    25    16    1
     9    22    21    1
    10    14    12    1
    11    16    21    1
    12    16     2    1
    13     7     4    1
    14    21    23    1
    15    21    24    1
    16    13    12    1
    17    12    15    1
    18    12     3    1
    19     4     5    1
    20     4     3    1
    21     4     6    1
    22    37    34    1
    23     3     2    1
    24     3     8    1
    25     2     1    1
    26     2    29    1
    27    32    30    1
    28    36    34    1
    29    34    29    1
    30    34    35    1
    31     9     8    1
    32     8    10    1
    33     8    11    1
    34    29    30    1
    35    29    38    1
    36    30    33    1
    37    30    31    1
    38    38    41    1
    39    38    40    1
    40    38    39    1
