@<TRIPOS>MOLECULE
1
 41 40 0 0 0
SMALL
GASTEIGER

@<TRIPOS>ATOM
      1 O           6.0012    4.3825    1.5481 O.3     1  UNL1        0.0000
      2 SI          7.2973    4.0278    2.4350 Si      1  UNL1        0.0000
      3 C           8.7944    4.1929    1.1825 C.3     1  UNL1        0.0000
      4 C           8.9832    5.6713    0.8336 C.3     1  UNL1        0.0000
      5 H           9.6720    5.7737   -0.0060 H       1  UNL1        0.0000
      6 H           9.4059    6.2215    1.6691 H       1  UNL1        0.0000
      7 H           8.0218    6.1083    0.5485 H       1  UNL1        0.0000
      8 C          10.1273    3.6353    1.6796 C.3     1  UNL1        0.0000
      9 H          10.9123    3.8291    0.9481 H       1  UNL1        0.0000
     10 H          10.0715    2.5614    1.8304 H       1  UNL1        0.0000
     11 H          10.4191    4.0951    2.6194 H       1  UNL1        0.0000
     12 C           8.4187    3.5028   -0.1321 C.3     1  UNL1        0.0000
     13 H           9.1830    3.6892   -0.8877 H       1  UNL1        0.0000
     14 H           7.4701    3.9053   -0.4870 H       1  UNL1        0.0000
     15 H           8.3199    2.4302   -0.0114 H       1  UNL1        0.0000
     16 C           7.3365    5.4173    3.8247 C.3     1  UNL1        0.0000
     17 C           8.6829    5.5880    4.5327 C.3     1  UNL1        0.0000
     18 H           8.6163    6.3771    5.2823 H       1  UNL1        0.0000
     19 H           9.4685    5.8576    3.8329 H       1  UNL1        0.0000
     20 H           8.9795    4.6718    5.0337 H       1  UNL1        0.0000
     21 C           6.9570    6.7569    3.1736 C.3     1  UNL1        0.0000
     22 H           6.5556    7.4398    3.9258 H       1  UNL1        0.0000
     23 H           6.1960    6.6055    2.3850 H       1  UNL1        0.0000
     24 H           7.8262    7.2351    2.7307 H       1  UNL1        0.0000
     25 C           6.2775    5.1351    4.8956 C.3     1  UNL1        0.0000
     26 H           6.2059    5.9774    5.5858 H       1  UNL1        0.0000
     27 H           6.5358    4.2592    5.4824 H       1  UNL1        0.0000
     28 H           5.2995    4.9831    4.4411 H       1  UNL1        0.0000
     29 C           7.1424    2.2349    3.2050 C.3     1  UNL1        0.0000
     30 C           8.1475    1.9900    4.3319 C.3     1  UNL1        0.0000
     31 H           8.0609    0.9644    4.6913 H       1  UNL1        0.0000
     32 H           7.9686    2.6509    5.1741 H       1  UNL1        0.0000
     33 H           9.1659    2.1429    3.9878 H       1  UNL1        0.0000
     34 C           7.3752    1.1550    2.1442 C.3     1  UNL1        0.0000
     35 H           7.2053    0.1678    2.5759 H       1  UNL1        0.0000
     36 H           8.3957    1.1788    1.7751 H       1  UNL1        0.0000
     37 H           6.6929    1.2809    1.3101 H       1  UNL1        0.0000
     38 C           5.7273    2.0160    3.7516 C.3     1  UNL1        0.0000
     39 H           5.5655    0.9595    3.9662 H       1  UNL1        0.0000
     40 H           4.9900    2.3379    3.0233 H       1  UNL1        0.0000
     41 H           5.5602    2.5668    4.6701 H       1  UNL1        0.0000
@<TRIPOS>BOND
     1    13    12    1
     2    14    12    1
     3    12    15    1
     4    12     3    1
     5     5     4    1
     6     7     4    1
     7     4     3    1
     8     4     6    1
     9     9     8    1
    10     3     8    1
    11     3     2    1
    12    37    34    1
    13     1     2    1
    14     8    10    1
    15     8    11    1
    16    36    34    1
    17    34    35    1
    18    34    29    1
    19    23    21    1
    20     2    29    1
    21     2    16    1
    22    24    21    1
    23    40    38    1
    24    21    16    1
    25    21    22    1
    26    29    38    1
    27    29    30    1
    28    38    39    1
    29    38    41    1
    30    16    17    1
    31    16    25    1
    32    19    17    1
    33    33    30    1
    34    30    31    1
    35    30    32    1
    36    28    25    1
    37    17    20    1
    38    17    18    1
    39    25    27    1
    40    25    26    1
