@<TRIPOS>MOLECULE
1
 41 40 0 0 0
SMALL
GASTEIGER

@<TRIPOS>ATOM
      1 O           3.2745    5.0875   -0.0977 O.3     1  UNL1        0.0000
      2 SI          2.6238    3.8406   -0.8709 Si      1  UNL1        0.0000
      3 C           1.7552    2.7189    0.4790 C.3     1  UNL1        0.0000
      4 C           2.6928    2.5641    1.6835 C.3     1  UNL1        0.0000
      5 H           2.1264    2.2673    2.5671 H       1  UNL1        0.0000
      6 H           3.1980    3.5118    1.8985 H       1  UNL1        0.0000
      7 H           3.4374    1.7962    1.5027 H       1  UNL1        0.0000
      8 C           0.4984    3.4239    0.9957 C.3     1  UNL1        0.0000
      9 H           0.0851    2.8832    1.8482 H       1  UNL1        0.0000
     10 H          -0.2721    3.4664    0.2325 H       1  UNL1        0.0000
     11 H           0.7391    4.4354    1.3153 H       1  UNL1        0.0000
     12 C           1.3616    1.3235   -0.0095 C.3     1  UNL1        0.0000
     13 H           0.8992    0.7595    0.8008 H       1  UNL1        0.0000
     14 H           2.2289    0.7668   -0.3533 H       1  UNL1        0.0000
     15 H           0.6523    1.3794   -0.8289 H       1  UNL1        0.0000
     16 C           4.1983    2.9838   -1.6780 C.3     1  UNL1        0.0000
     17 C           4.9766    2.1883   -0.6284 C.3     1  UNL1        0.0000
     18 H           5.9134    1.8287   -1.0590 H       1  UNL1        0.0000
     19 H           4.4164    1.3170   -0.3019 H       1  UNL1        0.0000
     20 H           5.2064    2.8234    0.2314 H       1  UNL1        0.0000
     21 C           3.9080    2.0458   -2.8511 C.3     1  UNL1        0.0000
     22 H           4.8336    1.6037   -3.2216 H       1  UNL1        0.0000
     23 H           3.4353    2.5681   -3.6765 H       1  UNL1        0.0000
     24 H           3.2488    1.2397   -2.5410 H       1  UNL1        0.0000
     25 C           5.1345    4.1074   -2.1416 C.3     1  UNL1        0.0000
     26 H           6.0934    3.6943   -2.4630 H       1  UNL1        0.0000
     27 H           5.3069    4.8257   -1.3087 H       1  UNL1        0.0000
     28 H           4.7060    4.6383   -2.9862 H       1  UNL1        0.0000
     29 C           1.3617    4.5300   -2.2007 C.3     1  UNL1        0.0000
     30 C           0.4348    3.4549   -2.7686 C.3     1  UNL1        0.0000
     31 H          -0.2026    3.8823   -3.5429 H       1  UNL1        0.0000
     32 H          -0.2111    3.0461   -1.9977 H       1  UNL1        0.0000
     33 H           1.0025    2.6397   -3.2081 H       1  UNL1        0.0000
     34 C           2.1030    5.1704   -3.3784 C.3     1  UNL1        0.0000
     35 H           1.3934    5.6684   -4.0402 H       1  UNL1        0.0000
     36 H           2.6325    4.4284   -3.9683 H       1  UNL1        0.0000
     37 H           2.8103    5.9113   -3.0215 H       1  UNL1        0.0000
     38 C           0.5050    5.6315   -1.5644 C.3     1  UNL1        0.0000
     39 H          -0.0202    6.1947   -2.3361 H       1  UNL1        0.0000
     40 H           1.1279    6.3163   -0.9971 H       1  UNL1        0.0000
     41 H          -0.2397    5.2182   -0.8938 H       1  UNL1        0.0000
@<TRIPOS>BOND
     1    35    34    1
     2    36    34    1
     3    23    21    1
     4    31    30    1
     5    34    37    1
     6    34    29    1
     7    22    21    1
     8    33    30    1
     9    28    25    1
    10    21    24    1
    11    21    16    1
    12    30    29    1
    13    30    32    1
    14    26    25    1
    15    39    38    1
    16    29    38    1
    17    29     2    1
    18    25    16    1
    19    25    27    1
    20    16     2    1
    21    16    17    1
    22    38    40    1
    23    38    41    1
    24    18    17    1
    25     2     1    1
    26     2     3    1
    27    15    12    1
    28    17    19    1
    29    17    20    1
    30    14    12    1
    31    12     3    1
    32    12    13    1
    33    10     8    1
    34     3     8    1
    35     3     4    1
    36     8    11    1
    37     8     9    1
    38     7     4    1
    39     4     6    1
    40     4     5    1
