@<TRIPOS>MOLECULE
1
 13 13 0 0 0
SMALL
GASTEIGER

@<TRIPOS>ATOM
      1 O           0.6872    8.1352   11.1175 O.3     1  UNL1       -0.3798
      2 C          -0.3370    7.2496   11.5653 C.3     1  UNL1        0.0477
      3 H           0.0721    6.2406   11.6177 H       1  UNL1        0.0560
      4 H          -1.1741    7.2719   10.8522 H       1  UNL1        0.0560
      5 C          -0.7623    7.8176   12.9177 C.3     1  UNL1       -0.0274
      6 H          -1.7625    7.5021   13.2050 H       1  UNL1        0.0288
      7 H          -0.0543    7.5026   13.6850 H       1  UNL1        0.0288
      8 C          -0.6552    9.3317   12.6841 C.3     1  UNL1       -0.0274
      9 H          -0.1477    9.8160   13.5151 H       1  UNL1        0.0288
     10 H          -1.6354    9.7896   12.5609 H       1  UNL1        0.0288
     11 C           0.1641    9.4411   11.3837 C.3     1  UNL1        0.0477
     12 H          -0.4801    9.7390   10.5449 H       1  UNL1        0.0560
     13 H           1.0078   10.1306   11.4482 H       1  UNL1        0.0560
@<TRIPOS>BOND
     1    12    11    1
     2     4     2    1
     3     1    11    1
     4     1     2    1
     5    11    13    1
     6    11     8    1
     7     2     3    1
     8     2     5    1
     9    10     8    1
    10     8     5    1
    11     8     9    1
    12     5     6    1
    13     5     7    1
