@<TRIPOS>MOLECULE
1
 13 13 0 0 0
SMALL
GASTEIGER

@<TRIPOS>ATOM
      1 O           2.4798    4.7750   11.8908 O.3     1  UNL1       -0.3798
      2 C           1.9162    5.4109   13.0552 C.3     1  UNL1        0.0477
      3 H           1.1156    4.7772   13.4440 H       1  UNL1        0.0560
      4 H           1.4980    6.3764   12.7490 H       1  UNL1        0.0560
      5 C           3.0593    5.6013   14.0464 C.3     1  UNL1       -0.0274
      6 H           2.8914    6.4467   14.7089 H       1  UNL1        0.0288
      7 H           3.1997    4.6998   14.6423 H       1  UNL1        0.0288
      8 C           4.2441    5.7939   13.1067 C.3     1  UNL1       -0.0274
      9 H           4.2488    6.8078   12.7047 H       1  UNL1        0.0288
     10 H           5.2030    5.5907   13.5762 H       1  UNL1        0.0288
     11 C           3.9145    4.7848   12.0137 C.3     1  UNL1        0.0477
     12 H           4.3404    5.0413   11.0420 H       1  UNL1        0.0560
     13 H           4.2492    3.7819   12.3046 H       1  UNL1        0.0560
@<TRIPOS>BOND
     1    12    11    1
     2     1    11    1
     3     1     2    1
     4    11    13    1
     5    11     8    1
     6     9     8    1
     7     4     2    1
     8     2     3    1
     9     2     5    1
    10     8    10    1
    11     8     5    1
    12     5     7    1
    13     5     6    1
