@<TRIPOS>MOLECULE
1
 13 13 0 0 0
SMALL
GASTEIGER

@<TRIPOS>ATOM
      1 O          -2.7850    8.9141   -2.5833 O.3     1  UNL1       -0.3798
      2 C          -1.5647    9.2097   -1.8964 C.3     1  UNL1        0.0477
      3 H          -1.1740    8.2900   -1.4407 H       1  UNL1        0.0560
      4 H          -1.7901    9.9289   -1.1084 H       1  UNL1        0.0560
      5 C          -0.5726    9.7507   -2.9419 C.3     1  UNL1       -0.0274
      6 H           0.3747    9.2178   -2.8815 H       1  UNL1        0.0288
      7 H          -0.3752   10.8099   -2.7925 H       1  UNL1        0.0288
      8 C          -1.2769    9.4967   -4.2814 C.3     1  UNL1       -0.0274
      9 H          -1.7131   10.4185   -4.6638 H       1  UNL1        0.0288
     10 H          -0.6118    9.0843   -5.0358 H       1  UNL1        0.0288
     11 C          -2.3857    8.5194   -3.8960 C.3     1  UNL1        0.0477
     12 H          -3.2578    8.5708   -4.5465 H       1  UNL1        0.0560
     13 H          -2.0054    7.4886   -3.8712 H       1  UNL1        0.0560
@<TRIPOS>BOND
     1    10     8    1
     2     9     8    1
     3    12    11    1
     4     8    11    1
     5     8     5    1
     6    11    13    1
     7    11     1    1
     8     5     6    1
     9     5     7    1
    10     5     2    1
    11     1     2    1
    12     2     3    1
    13     2     4    1
