@<TRIPOS>MOLECULE
1
 21 21 0 0 0
SMALL
GASTEIGER

@<TRIPOS>ATOM
      1 O           3.7904   -0.9080   15.2560 O.3     1  UNL1       -0.2873
      2 C           3.8896   -1.9841   14.4619 C.ar    1  UNL1        0.1847
      3 C           4.8557   -2.9891   14.6498 C.ar    1  UNL1       -0.0033
      4 C           4.8884   -4.0708   13.7795 C.ar    1  UNL1       -0.0523
      5 H           5.6402   -4.8323   13.9379 H       1  UNL1        0.0624
      6 C           3.9976   -4.2063   12.7287 C.ar    1  UNL1       -0.0497
      7 C           3.0398   -3.2155   12.5597 C.ar    1  UNL1       -0.0523
      8 H           2.3268   -3.2985   11.7511 H       1  UNL1        0.0624
      9 C           2.9704   -2.1237   13.4027 C.ar    1  UNL1       -0.0033
     10 C           5.8646   -2.9419   15.7660 C.3     1  UNL1       -0.0361
     11 H           5.7266   -3.7875   16.4430 H       1  UNL1        0.0279
     12 H           6.8751   -3.0131   15.3614 H       1  UNL1        0.0279
     13 H           5.7729   -2.0091   16.3355 H       1  UNL1        0.0279
     14 C           4.0742   -5.3741   11.7909 C.3     1  UNL1       -0.0397
     15 H           3.0868   -5.6354   11.4171 H       1  UNL1        0.0278
     16 H           4.5042   -6.2415   12.2864 H       1  UNL1        0.0278
     17 H           4.7032   -5.1281   10.9347 H       1  UNL1        0.0278
     18 C           1.9270   -1.0647   13.2126 C.3     1  UNL1       -0.0361
     19 H           1.4140   -0.8781   14.1556 H       1  UNL1        0.0279
     20 H           1.2013   -1.3649   12.4612 H       1  UNL1        0.0279
     21 H           2.3996   -0.1346   12.8963 H       1  UNL1        0.0279
@<TRIPOS>BOND
     1    17    14    1
     2    15    14    1
     3     8     7    1
     4    14    16    1
     5    14     6    1
     6    20    18    1
     7     7     6   ar
     8     7     9   ar
     9     6     4   ar
    10    21    18    1
    11    18     9    1
    12    18    19    1
    13     9     2   ar
    14     4     5    1
    15     4     3   ar
    16     2     3   ar
    17     2     1    1
    18     3    10    1
    19    12    10    1
    20    10    13    1
    21    10    11    1
