@<TRIPOS>MOLECULE
1
 24 24 0 0 0
SMALL
GASTEIGER

@<TRIPOS>ATOM
      1 O          -1.2537   -4.1770    4.5661 O.3     1  UNL1       -0.2876
      2 C          -0.7188   -2.9875    4.2736 C.ar    1  UNL1        0.1826
      3 C           0.3731   -2.4855    5.0038 C.ar    1  UNL1        0.0019
      4 C           0.8680   -1.2325    4.6756 C.ar    1  UNL1       -0.0544
      5 C           0.3005   -0.4632    3.6780 C.ar    1  UNL1       -0.0583
      6 C          -0.7840   -0.9443    2.9526 C.ar    1  UNL1       -0.0468
      7 C          -1.2664   -2.2110    3.2387 C.ar    1  UNL1       -0.0117
      8 C           0.9758   -3.3111    6.1149 C.3     1  UNL1       -0.0179
      9 C           0.9405   -2.5556    7.4436 C.3     1  UNL1       -0.0585
     10 C           2.4078   -3.7242    5.7674 C.3     1  UNL1       -0.0585
     11 C          -1.4269   -0.0959    1.8968 C.3     1  UNL1       -0.0396
     12 H           1.7131   -0.8411    5.2224 H       1  UNL1        0.0622
     13 H           0.3656   -4.2157    6.2170 H       1  UNL1        0.0345
     14 H           0.6954    0.5186    3.4624 H       1  UNL1        0.0620
     15 H           1.5467   -1.6541    7.3951 H       1  UNL1        0.0235
     16 H          -2.1031   -2.6124    2.6642 H       1  UNL1        0.0658
     17 H          -0.7129    0.1451    1.1101 H       1  UNL1        0.0278
     18 H          -1.7692    0.8424    2.3314 H       1  UNL1        0.0278
     19 H           1.3269   -3.1847    8.2421 H       1  UNL1        0.0235
     20 H           2.8089   -4.3791    6.5382 H       1  UNL1        0.0235
     21 H           2.4317   -4.2528    4.8172 H       1  UNL1        0.0235
     22 H           3.0514   -2.8509    5.6894 H       1  UNL1        0.0235
     23 H          -0.0803   -2.2743    7.6913 H       1  UNL1        0.0235
     24 H          -2.2788   -0.6053    1.4536 H       1  UNL1        0.0278
@<TRIPOS>BOND
     1    17    11    1
     2    24    11    1
     3    11    18    1
     4    11     6    1
     5    16     7    1
     6     6     7   ar
     7     6     5   ar
     8     7     2   ar
     9    14     5    1
    10     5     4   ar
    11     2     1    1
    12     2     3   ar
    13     4     3   ar
    14     4    12    1
    15    21    10    1
    16     3     8    1
    17    22    10    1
    18    10     8    1
    19    10    20    1
    20     8    13    1
    21     8     9    1
    22    15     9    1
    23     9    23    1
    24     9    19    1
