@<TRIPOS>MOLECULE
1
 24 24 0 0 0
SMALL
GASTEIGER

@<TRIPOS>ATOM
      1 O          -3.9196   -4.1173    2.7326 O.3     1  UNL1       -0.2876
      2 C          -4.5738   -3.0865    3.2768 C.ar    1  UNL1        0.1826
      3 C          -5.7232   -2.5544    2.6660 C.ar    1  UNL1        0.0019
      4 C          -6.3439   -1.4661    3.2601 C.ar    1  UNL1       -0.0544
      5 C          -5.8465   -0.8807    4.4085 C.ar    1  UNL1       -0.0583
      6 C          -4.7065   -1.3921    5.0191 C.ar    1  UNL1       -0.0468
      7 C          -4.0971   -2.5053    4.4638 C.ar    1  UNL1       -0.0117
      8 C          -6.2529   -3.1749    1.3957 C.3     1  UNL1       -0.0179
      9 C          -6.3388   -2.1438    0.2703 C.3     1  UNL1       -0.0585
     10 C          -7.6183   -3.8217    1.6402 C.3     1  UNL1       -0.0585
     11 C          -4.1398   -0.7336    6.2409 C.3     1  UNL1       -0.0396
     12 H          -3.8819    0.3012    6.0187 H       1  UNL1        0.0278
     13 H          -6.3402   -0.0192    4.8332 H       1  UNL1        0.0620
     14 H          -7.2341   -1.0563    2.8062 H       1  UNL1        0.0622
     15 H          -5.3648   -1.6928    0.0956 H       1  UNL1        0.0235
     16 H          -3.2154   -2.9334    4.9437 H       1  UNL1        0.0658
     17 H          -3.2453   -1.2488    6.5814 H       1  UNL1        0.0278
     18 H          -5.5451   -3.9554    1.0941 H       1  UNL1        0.0345
     19 H          -6.6661   -2.6216   -0.6502 H       1  UNL1        0.0235
     20 H          -7.0469   -1.3561    0.5166 H       1  UNL1        0.0235
     21 H          -7.9630   -4.3274    0.7406 H       1  UNL1        0.0235
     22 H          -4.8709   -0.7263    7.0482 H       1  UNL1        0.0278
     23 H          -7.5552   -4.5507    2.4448 H       1  UNL1        0.0235
     24 H          -8.3549   -3.0704    1.9161 H       1  UNL1        0.0235
@<TRIPOS>BOND
     1    19     9    1
     2    15     9    1
     3     9    20    1
     4     9     8    1
     5    21    10    1
     6    18     8    1
     7     8    10    1
     8     8     3    1
     9    10    24    1
    10    10    23    1
    11     3     4   ar
    12     3     2   ar
    13     1     2    1
    14    14     4    1
    15     4     5   ar
    16     2     7   ar
    17     5    13    1
    18     5     6   ar
    19     7    16    1
    20     7     6   ar
    21     6    11    1
    22    12    11    1
    23    11    17    1
    24    11    22    1
