@<TRIPOS>MOLECULE
1
 21 21 0 0 0
SMALL
GASTEIGER

@<TRIPOS>ATOM
      1 O           5.2220   -0.9083   18.1186 O.3     1  UNL1       -0.2873
      2 C           5.1224   -1.9842   18.9130 C.ar    1  UNL1        0.1847
      3 C           4.1563   -2.9892   18.7252 C.ar    1  UNL1       -0.0033
      4 C           4.1236   -4.0709   19.5955 C.ar    1  UNL1       -0.0523
      5 H           3.3718   -4.8323   19.4371 H       1  UNL1        0.0624
      6 C           5.0144   -4.2063   20.6463 C.ar    1  UNL1       -0.0497
      7 C           5.9722   -3.2155   20.8152 C.ar    1  UNL1       -0.0523
      8 H           6.6852   -3.2985   21.6239 H       1  UNL1        0.0624
      9 C           6.0416   -2.1238   19.9722 C.ar    1  UNL1       -0.0033
     10 C           3.1474   -2.9420   17.6090 C.3     1  UNL1       -0.0361
     11 H           3.2854   -3.7875   16.9320 H       1  UNL1        0.0279
     12 H           2.1369   -3.0132   18.0136 H       1  UNL1        0.0279
     13 H           3.2389   -2.0092   17.0397 H       1  UNL1        0.0279
     14 C           4.9378   -5.3741   21.5841 C.3     1  UNL1       -0.0397
     15 H           5.9252   -5.6354   21.9579 H       1  UNL1        0.0278
     16 H           4.5078   -6.2415   21.0887 H       1  UNL1        0.0278
     17 H           4.3087   -5.1281   22.4403 H       1  UNL1        0.0278
     18 C           7.0850   -1.0647   20.1624 C.3     1  UNL1       -0.0361
     19 H           7.5980   -0.8781   19.2194 H       1  UNL1        0.0279
     20 H           7.8107   -1.3648   20.9138 H       1  UNL1        0.0279
     21 H           6.6124   -0.1346   20.4786 H       1  UNL1        0.0279
@<TRIPOS>BOND
     1    11    10    1
     2    13    10    1
     3    10    12    1
     4    10     3    1
     5     1     2    1
     6     3     2   ar
     7     3     4   ar
     8     2     9   ar
     9    19    18    1
    10     5     4    1
    11     4     6   ar
    12     9    18    1
    13     9     7   ar
    14    18    21    1
    15    18    20    1
    16     6     7   ar
    17     6    14    1
    18     7     8    1
    19    16    14    1
    20    14    15    1
    21    14    17    1
