@<TRIPOS>MOLECULE
1
 18 18 0 0 0
SMALL
GASTEIGER

@<TRIPOS>ATOM
      1 O           8.0531    1.9033   14.0560 O.3     1  UNL1       -0.2873
      2 C           8.7245    0.8461   14.5327 C.ar    1  UNL1        0.1847
      3 C           8.8765    0.7250   15.9295 C.ar    1  UNL1       -0.0035
      4 C           9.5742   -0.3417   16.4630 C.ar    1  UNL1       -0.0552
      5 C          10.1236   -1.3127   15.6440 C.ar    1  UNL1       -0.0610
      6 C           9.9582   -1.2109   14.2775 C.ar    1  UNL1       -0.0552
      7 C           9.2650   -0.1535   13.7019 C.ar    1  UNL1       -0.0035
      8 C           8.2752    1.7768   16.8117 C.3     1  UNL1       -0.0361
      9 C           9.1234   -0.1236   12.2035 C.3     1  UNL1       -0.0361
     10 H           9.6881   -0.4124   17.5354 H       1  UNL1        0.0621
     11 H          10.6708   -2.1405   16.0686 H       1  UNL1        0.0618
     12 H          10.3750   -1.9679   13.6277 H       1  UNL1        0.0621
     13 H           8.8100    2.7177   16.6811 H       1  UNL1        0.0279
     14 H           8.3290    1.4831   17.8568 H       1  UNL1        0.0279
     15 H           7.2336    1.9396   16.5357 H       1  UNL1        0.0279
     16 H          10.1051   -0.1898   11.7328 H       1  UNL1        0.0279
     17 H           8.5409   -0.9801   11.8580 H       1  UNL1        0.0279
     18 H           8.6313    0.7995   11.8748 H       1  UNL1        0.0279
@<TRIPOS>BOND
     1    16     9    1
     2    17     9    1
     3    18     9    1
     4     9     7    1
     5    12     6    1
     6     7     6   ar
     7     7     2   ar
     8     1     2    1
     9     6     5   ar
    10     2     3   ar
    11     5    11    1
    12     5     4   ar
    13     3     4   ar
    14     3     8    1
    15     4    10    1
    16    15     8    1
    17    13     8    1
    18     8    14    1
