@<TRIPOS>MOLECULE
1
 18 18 0 0 0
SMALL
GASTEIGER

@<TRIPOS>ATOM
      1 O           6.9694    1.9034   11.0504 O.3     1  UNL1       -0.2873
      2 C           6.2982    0.8461   10.5737 C.ar    1  UNL1        0.1847
      3 C           6.1462    0.7250    9.1769 C.ar    1  UNL1       -0.0035
      4 C           5.4485   -0.3417    8.6434 C.ar    1  UNL1       -0.0552
      5 C           4.8991   -1.3127    9.4624 C.ar    1  UNL1       -0.0610
      6 C           5.0646   -1.2110   10.8289 C.ar    1  UNL1       -0.0552
      7 C           5.7577   -0.1535   11.4045 C.ar    1  UNL1       -0.0035
      8 C           6.7476    1.7767    8.2947 C.3     1  UNL1       -0.0361
      9 C           5.8993   -0.1236   12.9029 C.3     1  UNL1       -0.0361
     10 H           5.3347   -0.4125    7.5710 H       1  UNL1        0.0621
     11 H           4.3520   -2.1406    9.0379 H       1  UNL1        0.0618
     12 H           4.6478   -1.9679   11.4788 H       1  UNL1        0.0621
     13 H           6.2127    2.7177    8.4252 H       1  UNL1        0.0279
     14 H           6.6938    1.4831    7.2496 H       1  UNL1        0.0279
     15 H           7.7891    1.9396    8.5707 H       1  UNL1        0.0279
     16 H           4.9176   -0.1897   13.3735 H       1  UNL1        0.0279
     17 H           6.4817   -0.9801   13.2485 H       1  UNL1        0.0279
     18 H           6.3915    0.7995   13.2317 H       1  UNL1        0.0279
@<TRIPOS>BOND
     1    14     8    1
     2    10     4    1
     3     8    13    1
     4     8    15    1
     5     8     3    1
     6     4     3   ar
     7     4     5   ar
     8    11     5    1
     9     3     2   ar
    10     5     6   ar
    11     2     1    1
    12     2     7   ar
    13     6     7   ar
    14     6    12    1
    15     7     9    1
    16     9    18    1
    17     9    17    1
    18     9    16    1
