@<TRIPOS>MOLECULE
1
 13 13 0 0 0
SMALL
GASTEIGER

@<TRIPOS>ATOM
      1 O           0.2923   12.9823   11.3122 O.3     1  UNL1       -0.3798
      2 C           0.8732   13.9947   12.1281 C.3     1  UNL1        0.0477
      3 H           1.9420   14.0215   11.9205 H       1  UNL1        0.0560
      4 H           0.7176   13.7484   13.1890 H       1  UNL1        0.0560
      5 C          -1.2927   14.7504   11.4428 C.3     1  UNL1       -0.0274
      6 H          -1.6569   15.1432   10.4957 H       1  UNL1        0.0288
      7 H          -2.0053   15.0198   12.2205 H       1  UNL1        0.0288
      8 C           0.1193   15.2714   11.7554 C.3     1  UNL1       -0.0274
      9 H           0.5665   15.7170   10.8683 H       1  UNL1        0.0288
     10 H           0.1307   16.0007   12.5618 H       1  UNL1        0.0288
     11 C          -1.1092   13.2220   11.3781 C.3     1  UNL1        0.0477
     12 H          -1.5169   12.7510   12.2850 H       1  UNL1        0.0560
     13 H          -1.5744   12.7677   10.5029 H       1  UNL1        0.0560
@<TRIPOS>BOND
     1     6     5    1
     2    13    11    1
     3     9     8    1
     4     1    11    1
     5     1     2    1
     6    11     5    1
     7    11    12    1
     8     5     8    1
     9     5     7    1
    10     8     2    1
    11     8    10    1
    12     3     2    1
    13     2     4    1
