@<TRIPOS>MOLECULE
1
 13 13 0 0 0
SMALL
GASTEIGER

@<TRIPOS>ATOM
      1 O           3.7541    9.4245    8.8817 O.3     1  UNL1       -0.3798
      2 C           5.1875    7.5450    8.9020 C.3     1  UNL1       -0.0274
      3 H           6.1725    7.3110    8.5036 H       1  UNL1        0.0288
      4 H           5.0208    6.9300    9.7845 H       1  UNL1        0.0288
      5 C           3.5124    8.7433    7.6562 C.3     1  UNL1        0.0477
      6 H           4.0445    9.2563    6.8418 H       1  UNL1        0.0560
      7 H           2.4393    8.7544    7.4651 H       1  UNL1        0.0560
      8 C           5.0732    9.0390    9.2473 C.3     1  UNL1        0.0477
      9 H           5.2118    9.2555   10.3050 H       1  UNL1        0.0560
     10 H           5.7979    9.6232    8.6622 H       1  UNL1        0.0560
     11 C           4.0731    7.3316    7.8633 C.3     1  UNL1       -0.0274
     12 H           3.2933    6.6800    8.2555 H       1  UNL1        0.0288
     13 H           4.4446    6.9081    6.9332 H       1  UNL1        0.0288
@<TRIPOS>BOND
     1     6     5    1
     2    13    11    1
     3     7     5    1
     4     5    11    1
     5     5     1    1
     6    11    12    1
     7    11     2    1
     8     3     2    1
     9    10     8    1
    10     1     8    1
    11     2     8    1
    12     2     4    1
    13     8     9    1
