@<TRIPOS>MOLECULE
2
 14 13 0 0 0
SMALL
GASTEIGER

@<TRIPOS>ATOM
      1 SI          6.0149    4.6582    5.3604 Si      1  UNL1        0.0000
      2 O           7.2295    4.7363    4.2812 O.3     1  UNL1        0.0000
      3 C           6.3282    3.0650    6.3757 C.3     1  UNL1        0.0000
      4 H           7.3202    3.0749    6.8197 H       1  UNL1        0.0000
      5 H           6.2577    2.1783    5.7501 H       1  UNL1        0.0000
      6 H           5.6032    2.9664    7.1770 H       1  UNL1        0.0000
      7 C           6.0979    6.2329    6.4403 C.3     1  UNL1        0.0000
      8 H           5.9550    7.1261    5.8365 H       1  UNL1        0.0000
      9 H           7.0686    6.3222    6.9222 H       1  UNL1        0.0000
     10 H           5.3376    6.2282    7.2150 H       1  UNL1        0.0000
     11 C           4.3730    4.5426    4.3843 C.3     1  UNL1        0.0000
     12 H           4.3316    5.2940    3.5997 H       1  UNL1        0.0000
     13 H           3.5200    4.6946    5.0377 H       1  UNL1        0.0000
     14 H           4.2600    3.5695    3.9135 H       1  UNL1        0.0000
@<TRIPOS>BOND
     1    12    11    1
     2    14    11    1
     3     2     1    1
     4    11    13    1
     5    11     1    1
     6     1     3    1
     7     1     7    1
     8     5     3    1
     9     8     7    1
    10     3     4    1
    11     3     6    1
    12     7     9    1
    13     7    10    1
