@<TRIPOS>MOLECULE
1
 13 13 0 0 0
SMALL
GASTEIGER

@<TRIPOS>ATOM
      1 O           1.7937    3.5421    1.9289 O.3     1  UNL1       -0.3798
      2 C           1.8756    2.2815    1.2250 C.3     1  UNL1        0.0477
      3 C           3.3629    1.9688    1.0838 C.3     1  UNL1       -0.0274
      4 H           3.7487    2.4312    0.1744 H       1  UNL1        0.0288
      5 H           3.5577    0.8999    1.0592 H       1  UNL1        0.0288
      6 C           3.9471    2.6599    2.3118 C.3     1  UNL1       -0.0274
      7 H           3.7657    2.0664    3.2093 H       1  UNL1        0.0288
      8 H           5.0108    2.8627    2.2224 H       1  UNL1        0.0288
      9 C           3.1172    3.9364    2.3435 C.3     1  UNL1        0.0477
     10 H           3.0402    4.3751    3.3443 H       1  UNL1        0.0560
     11 H           3.5085    4.6655    1.6176 H       1  UNL1        0.0560
     12 H           1.3652    1.5232    1.8354 H       1  UNL1        0.0560
     13 H           1.3896    2.3890    0.2451 H       1  UNL1        0.0560
@<TRIPOS>BOND
     1     4     3    1
     2    13     2    1
     3     5     3    1
     4     3     2    1
     5     3     6    1
     6     2    12    1
     7     2     1    1
     8    11     9    1
     9     1     9    1
    10     8     6    1
    11     6     9    1
    12     6     7    1
    13     9    10    1
