@<TRIPOS>MOLECULE
2
 23 22 0 0 0
SMALL
GASTEIGER

@<TRIPOS>ATOM
      1 SI          3.5356   21.5312    1.0188 Si      1  UNL1        0.0000
      2 O           2.0430   21.5292    1.5855 O.3     1  UNL1        0.0000
      3 C           3.4929   21.7966   -0.8753 C.3     1  UNL1        0.0000
      4 C           4.5475   22.9826    1.7714 C.3     1  UNL1        0.0000
      5 C           4.4135   19.8438    1.4376 C.3     1  UNL1        0.0000
      6 C           3.3508   18.8695    1.9517 C.3     1  UNL1        0.0000
      7 C           5.0979   19.2252    0.2179 C.3     1  UNL1        0.0000
      8 C           5.4673   20.0290    2.5305 C.3     1  UNL1        0.0000
      9 H           4.4891   21.7727   -1.3008 H       1  UNL1        0.0000
     10 H           3.0530   22.7575   -1.1165 H       1  UNL1        0.0000
     11 H           2.9007   21.0356   -1.3712 H       1  UNL1        0.0000
     12 H           5.5712   23.0109    1.4126 H       1  UNL1        0.0000
     13 H           4.5746   22.9148    2.8562 H       1  UNL1        0.0000
     14 H           4.0847   23.9298    1.5105 H       1  UNL1        0.0000
     15 H           3.8062   17.9306    2.2734 H       1  UNL1        0.0000
     16 H           2.8128   19.3124    2.7919 H       1  UNL1        0.0000
     17 H           2.6321   18.6491    1.1651 H       1  UNL1        0.0000
     18 H           5.5600   18.2728    0.4806 H       1  UNL1        0.0000
     19 H           5.8734   19.8855   -0.1622 H       1  UNL1        0.0000
     20 H           4.3820   19.0486   -0.5798 H       1  UNL1        0.0000
     21 H           5.8915   19.0671    2.8237 H       1  UNL1        0.0000
     22 H           6.2784   20.6633    2.1810 H       1  UNL1        0.0000
     23 H           5.0210   20.4916    3.4053 H       1  UNL1        0.0000
@<TRIPOS>BOND
     1    11     3    1
     2     9     3    1
     3    10     3    1
     4     3     1    1
     5    20     7    1
     6    19     7    1
     7     7    18    1
     8     7     5    1
     9     1     5    1
    10     1     2    1
    11     1     4    1
    12    17     6    1
    13    12     4    1
    14     5     6    1
    15     5     8    1
    16    14     4    1
    17     4    13    1
    18     6    15    1
    19     6    16    1
    20    22     8    1
    21     8    21    1
    22     8    23    1
