@<TRIPOS>MOLECULE
2
 23 22 0 0 0
SMALL
GASTEIGER

@<TRIPOS>ATOM
      1 SI         -1.2721   23.6159    1.8576 Si      1  UNL1        0.0000
      2 O          -0.4754   22.4348    2.5661 O.3     1  UNL1        0.0000
      3 C          -1.2945   25.1704    2.9945 C.3     1  UNL1        0.0000
      4 C          -3.0960   23.0932    1.5765 C.3     1  UNL1        0.0000
      5 C          -0.4474   24.0458    0.1661 C.3     1  UNL1        0.0000
      6 C          -0.2590   22.7554   -0.6331 C.3     1  UNL1        0.0000
      7 C           0.9386   24.6346    0.4330 C.3     1  UNL1        0.0000
      8 C          -1.2700   25.0349   -0.6591 C.3     1  UNL1        0.0000
      9 H          -1.0938   26.0900    2.4555 H       1  UNL1        0.0000
     10 H          -2.2504   25.2979    3.4933 H       1  UNL1        0.0000
     11 H          -0.5310   25.0537    3.7606 H       1  UNL1        0.0000
     12 H          -3.7088   23.9502    1.3213 H       1  UNL1        0.0000
     13 H          -3.5166   22.6402    2.4688 H       1  UNL1        0.0000
     14 H          -3.1904   22.3733    0.7705 H       1  UNL1        0.0000
     15 H           0.2353   22.9596   -1.5836 H       1  UNL1        0.0000
     16 H          -1.2166   22.2837   -0.8444 H       1  UNL1        0.0000
     17 H           0.3582   22.0632   -0.0627 H       1  UNL1        0.0000
     18 H           1.4854   24.7740   -0.5011 H       1  UNL1        0.0000
     19 H           0.8612   25.6018    0.9245 H       1  UNL1        0.0000
     20 H           1.5062   23.9549    1.0724 H       1  UNL1        0.0000
     21 H          -0.7632   25.2699   -1.5955 H       1  UNL1        0.0000
     22 H          -1.4239   25.9631   -0.1132 H       1  UNL1        0.0000
     23 H          -2.2454   24.6167   -0.8948 H       1  UNL1        0.0000
@<TRIPOS>BOND
     1    21     8    1
     2    15     6    1
     3    23     8    1
     4    16     6    1
     5     8    22    1
     6     8     5    1
     7     6    17    1
     8     6     5    1
     9    18     7    1
    10     5     7    1
    11     5     1    1
    12     7    19    1
    13     7    20    1
    14    14     4    1
    15    12     4    1
    16     4     1    1
    17     4    13    1
    18     1     2    1
    19     1     3    1
    20     9     3    1
    21     3    10    1
    22     3    11    1
