@<TRIPOS>MOLECULE
1
 9 9 0 0 0
SMALL
GASTEIGER

@<TRIPOS>ATOM
      1 O          14.3767    1.9198    3.5480 O.2     1  UNL1       -0.4710
      2 C          14.9673    2.8497    2.7606 C.ar    1  UNL1        0.0917
      3 H          14.3319    3.5886    2.3083 H       1  UNL1        0.1029
      4 C          16.3072    2.6434    2.7060 C.ar    1  UNL1       -0.0239
      5 H          17.0250    3.2229    2.1630 H       1  UNL1        0.0649
      6 C          16.5655    1.5065    3.5149 C.ar    1  UNL1       -0.0239
      7 H          17.5167    1.0538    3.7056 H       1  UNL1        0.0649
      8 C          15.3629    1.1087    4.0004 C.ar    1  UNL1        0.0917
      9 H          15.0825    0.2963    4.6455 H       1  UNL1        0.1029
@<TRIPOS>BOND
     1     5     4    1
     2     3     2    1
     3     4     2   ar
     4     4     6   ar
     5     2     1   ar
     6     6     7    1
     7     6     8   ar
     8     1     8   ar
     9     8     9    1
