@<TRIPOS>MOLECULE
1
 43 44 0 0 0
SMALL
GASTEIGER

@<TRIPOS>ATOM
      1 O           8.3665   19.0091    8.2771 O.2     1  UNL1       -0.2652
      2 N           9.4872   20.4072    6.8459 N.2     1  UNL1       -0.2086
      3 C           9.4409   19.3992    7.6318 C.2     1  UNL1        0.2779
      4 C          10.7108   18.6808    7.8951 C.ar    1  UNL1        0.0412
      5 C          10.7435   17.6734    8.8554 C.ar    1  UNL1       -0.0494
      6 H           9.8315   17.4085    9.3758 H       1  UNL1        0.0625
      7 C          11.9306   17.0266    9.1474 C.ar    1  UNL1       -0.0610
      8 H          11.9468   16.2585    9.9071 H       1  UNL1        0.0618
      9 C          13.0903   17.3658    8.4703 C.ar    1  UNL1       -0.0617
     10 H          14.0162   16.8561    8.6936 H       1  UNL1        0.0618
     11 C          13.0611   18.3604    7.5049 C.ar    1  UNL1       -0.0610
     12 H          13.9649   18.6218    6.9744 H       1  UNL1        0.0618
     13 C          11.8816   19.0220    7.2222 C.ar    1  UNL1       -0.0494
     14 H          11.8491   19.8042    6.4807 H       1  UNL1        0.0625
     15 C           8.4357   21.2554    6.5452 C.ar    1  UNL1        0.0747
     16 C           7.9132   21.2352    5.2345 C.ar    1  UNL1       -0.0190
     17 C           6.9367   22.1566    4.8884 C.ar    1  UNL1       -0.0563
     18 H           6.5246   22.1594    3.8918 H       1  UNL1        0.0621
     19 C           6.4841   23.0906    5.8036 C.ar    1  UNL1       -0.0611
     20 H           5.7261   23.8050    5.5168 H       1  UNL1        0.0618
     21 C           7.0186   23.1240    7.0786 C.ar    1  UNL1       -0.0563
     22 H           6.6690   23.8739    7.7705 H       1  UNL1        0.0621
     23 C           7.9894   22.2162    7.4721 C.ar    1  UNL1       -0.0190
     24 C           8.4880   20.2413    4.2469 C.3     1  UNL1       -0.0195
     25 H           8.5974   19.2720    4.7590 H       1  UNL1        0.0344
     26 C           7.6280   20.0386    3.0015 C.3     1  UNL1       -0.0586
     27 H           6.6082   19.7601    3.2589 H       1  UNL1        0.0235
     28 H           8.0554   19.2436    2.3948 H       1  UNL1        0.0235
     29 H           7.6053   20.9398    2.3920 H       1  UNL1        0.0235
     30 C           9.8819   20.7248    3.8309 C.3     1  UNL1       -0.0586
     31 H           9.8083   21.6814    3.3162 H       1  UNL1        0.0235
     32 H          10.3511   20.0030    3.1675 H       1  UNL1        0.0235
     33 H          10.5053   20.8480    4.7106 H       1  UNL1        0.0235
     34 C           8.6309   22.2624    8.8415 C.3     1  UNL1       -0.0195
     35 H           8.7520   21.2310    9.1916 H       1  UNL1        0.0344
     36 C           7.8125   23.0163    9.8879 C.3     1  UNL1       -0.0586
     37 H           7.7828   24.0813    9.6694 H       1  UNL1        0.0235
     38 H           8.2730   22.8920   10.8664 H       1  UNL1        0.0235
     39 H           6.7920   22.6394    9.9375 H       1  UNL1        0.0235
     40 C          10.0260   22.8840    8.7173 C.3     1  UNL1       -0.0586
     41 H          10.6273   22.3099    8.0169 H       1  UNL1        0.0235
     42 H          10.5266   22.8913    9.6834 H       1  UNL1        0.0235
     43 H           9.9488   23.9076    8.3552 H       1  UNL1        0.0235
@<TRIPOS>BOND
     1    29    26    1
     2    28    26    1
     3    26    27    1
     4    26    24    1
     5    32    30    1
     6    31    30    1
     7    30    24    1
     8    30    33    1
     9    18    17    1
    10    24    25    1
    11    24    16    1
    12    17    16   ar
    13    17    19   ar
    14    16    15   ar
    15    20    19    1
    16    19    21   ar
    17    14    13    1
    18    15     2    1
    19    15    23   ar
    20     2     3    2
    21    12    11    1
    22    21    23   ar
    23    21    22    1
    24    13    11   ar
    25    13     4   ar
    26    23    34    1
    27    11     9   ar
    28     3     4    1
    29     3     1    1
    30     4     5   ar
    31    41    40    1
    32    43    40    1
    33     9    10    1
    34     9     7   ar
    35    40    34    1
    36    40    42    1
    37    34    35    1
    38    34    36    1
    39     5     7   ar
    40     5     6    1
    41     7     8    1
    42    37    36    1
    43    36    39    1
    44    36    38    1
