@<TRIPOS>MOLECULE
1
 13 13 0 0 0
SMALL
GASTEIGER

@<TRIPOS>ATOM
      1 O           4.8131    2.3683   10.7217 O.3     1  UNL1       -0.3798
      2 C           4.0599    1.1670   10.6025 C.3     1  UNL1        0.0477
      3 H           3.3405    1.1268   11.4177 H       1  UNL1        0.0560
      4 H           4.7346    0.3023   10.6764 H       1  UNL1        0.0560
      5 C           5.4674    2.5051    9.4632 C.3     1  UNL1        0.0477
      6 H           6.3645    1.8698    9.4538 H       1  UNL1        0.0560
      7 H           5.7558    3.5500    9.3465 H       1  UNL1        0.0560
      8 C           4.4619    2.0306    8.3987 C.3     1  UNL1       -0.0274
      9 H           3.9993    2.8802    7.8998 H       1  UNL1        0.0288
     10 H           4.9532    1.4162    7.6467 H       1  UNL1        0.0288
     11 C           3.4274    1.2316    9.2091 C.3     1  UNL1       -0.0274
     12 H           3.2496    0.2390    8.8024 H       1  UNL1        0.0288
     13 H           2.4784    1.7643    9.2531 H       1  UNL1        0.0288
@<TRIPOS>BOND
     1    10     8    1
     2     9     8    1
     3     8    11    1
     4     8     5    1
     5    12    11    1
     6    11    13    1
     7    11     2    1
     8     7     5    1
     9     6     5    1
    10     5     1    1
    11     2     4    1
    12     2     1    1
    13     2     3    1
