@<TRIPOS>MOLECULE
1
 39 39 0 0 0
SMALL
GASTEIGER

@<TRIPOS>ATOM
      1 O          17.6268   18.3818   18.4193 O.3     1  UNL1       -0.2873
      2 C          18.5217   19.3589   18.3960 C.ar    1  UNL1        0.1863
      3 C          18.6568   20.2339   19.5055 C.ar    1  UNL1        0.0052
      4 C          19.5937   21.2530   19.4406 C.ar    1  UNL1       -0.0515
      5 C          20.3949   21.4479   18.3298 C.ar    1  UNL1       -0.0497
      6 C          20.2526   20.5891   17.2508 C.ar    1  UNL1       -0.0515
      7 C          19.3412   19.5483   17.2504 C.ar    1  UNL1        0.0052
      8 C          17.7659   20.0724   20.7393 C.3     1  UNL1       -0.0090
      9 C          18.0860   21.0980   21.8368 C.3     1  UNL1       -0.0559
     10 C          16.2971   20.2756   20.3395 C.3     1  UNL1       -0.0559
     11 C          17.9475   18.6806   21.3658 C.3     1  UNL1       -0.0559
     12 C          19.2457   18.5964   16.0563 C.3     1  UNL1       -0.0090
     13 C          20.1393   19.0311   14.8855 C.3     1  UNL1       -0.0559
     14 C          19.7090   17.2003   16.4967 C.3     1  UNL1       -0.0559
     15 C          17.8088   18.5179   15.5162 C.3     1  UNL1       -0.0559
     16 C          21.4036   22.5588   18.2800 C.3     1  UNL1       -0.0397
     17 H          19.7184   21.9296   20.2698 H       1  UNL1        0.0624
     18 H          20.8864   20.7608   16.3965 H       1  UNL1        0.0624
     19 H          17.9192   22.1139   21.4878 H       1  UNL1        0.0238
     20 H          19.1128   21.0006   22.1807 H       1  UNL1        0.0238
     21 H          17.4302   20.9274   22.6890 H       1  UNL1        0.0238
     22 H          16.1705   21.2441   19.8591 H       1  UNL1        0.0238
     23 H          15.6603   20.2417   21.2230 H       1  UNL1        0.0238
     24 H          15.9699   19.4992   19.6470 H       1  UNL1        0.0238
     25 H          18.9936   18.5237   21.6234 H       1  UNL1        0.0238
     26 H          17.6273   17.8816   20.6790 H       1  UNL1        0.0238
     27 H          17.3511   18.6039   22.2746 H       1  UNL1        0.0238
     28 H          19.8687   20.0234   14.5331 H       1  UNL1        0.0238
     29 H          20.0118   18.3343   14.0587 H       1  UNL1        0.0238
     30 H          21.1899   19.0237   15.1647 H       1  UNL1        0.0238
     31 H          19.0507   16.7993   17.2698 H       1  UNL1        0.0238
     32 H          20.7211   17.2489   16.8949 H       1  UNL1        0.0238
     33 H          19.7027   16.5176   15.6476 H       1  UNL1        0.0238
     34 H          17.4367   19.5175   15.2995 H       1  UNL1        0.0238
     35 H          17.1354   18.0360   16.2356 H       1  UNL1        0.0238
     36 H          17.7922   17.9359   14.5953 H       1  UNL1        0.0238
     37 H          21.3580   23.1660   19.1807 H       1  UNL1        0.0278
     38 H          21.2232   23.2022   17.4193 H       1  UNL1        0.0278
     39 H          22.4122   22.1556   18.1872 H       1  UNL1        0.0278
@<TRIPOS>BOND
     1    29    13    1
     2    28    13    1
     3    36    15    1
     4    13    30    1
     5    13    12    1
     6    34    15    1
     7    15    12    1
     8    15    35    1
     9    33    14    1
    10    12    14    1
    11    12     7    1
    12    18     6    1
    13    14    32    1
    14    14    31    1
    15     7     6   ar
    16     7     2   ar
    17     6     5   ar
    18    38    16    1
    19    39    16    1
    20    16     5    1
    21    16    37    1
    22     5     4   ar
    23     2     1    1
    24     2     3   ar
    25     4     3   ar
    26     4    17    1
    27     3     8    1
    28    24    10    1
    29    22    10    1
    30    10     8    1
    31    10    23    1
    32    26    11    1
    33     8    11    1
    34     8     9    1
    35    11    25    1
    36    11    27    1
    37    19     9    1
    38     9    20    1
    39     9    21    1
