@<TRIPOS>MOLECULE
1
 13 13 0 0 0
SMALL
GASTEIGER

@<TRIPOS>ATOM
      1 O           3.3859   15.9490    4.3869 O.3     1  UNL1       -0.3798
      2 C           4.7194   16.1718    4.8348 C.3     1  UNL1        0.0477
      3 H           5.4224   15.7230    4.1179 H       1  UNL1        0.0560
      4 H           4.8432   15.6947    5.8065 H       1  UNL1        0.0560
      5 C           4.8895   17.6950    4.8684 C.3     1  UNL1       -0.0274
      6 H           4.6074   18.0850    5.8454 H       1  UNL1        0.0288
      7 H           5.9166   17.9855    4.6589 H       1  UNL1        0.0288
      8 C           3.9050   18.1800    3.7914 C.3     1  UNL1       -0.0274
      9 H           4.4084   18.6708    2.9610 H       1  UNL1        0.0288
     10 H           3.1822   18.8753    4.2139 H       1  UNL1        0.0288
     11 C           3.2114   16.8895    3.3301 C.3     1  UNL1        0.0477
     12 H           2.1437   17.0163    3.1512 H       1  UNL1        0.0560
     13 H           3.6928   16.5040    2.4192 H       1  UNL1        0.0560
@<TRIPOS>BOND
     1    13    11    1
     2     9     8    1
     3    12    11    1
     4    11     8    1
     5    11     1    1
     6     8    10    1
     7     8     5    1
     8     3     2    1
     9     1     2    1
    10     7     5    1
    11     2     5    1
    12     2     4    1
    13     5     6    1
