@<TRIPOS>MOLECULE
1
 13 13 0 0 0
SMALL
GASTEIGER

@<TRIPOS>ATOM
      1 O          -0.4377    3.9584    3.9700 O.3     1  UNL1       -0.3798
      2 C          -1.2902    3.4950    2.9179 C.3     1  UNL1        0.0477
      3 C          -2.6309    4.2264    3.0896 C.3     1  UNL1       -0.0274
      4 C          -2.2859    5.4056    4.0136 C.3     1  UNL1       -0.0274
      5 C          -0.7595    5.3443    4.1005 C.3     1  UNL1        0.0477
      6 H          -0.8330    3.7473    1.9521 H       1  UNL1        0.0560
      7 H          -1.3621    2.4102    2.9934 H       1  UNL1        0.0560
      8 H          -3.0105    4.5617    2.1265 H       1  UNL1        0.0288
      9 H          -3.3767    3.5767    3.5431 H       1  UNL1        0.0288
     10 H          -2.6278    6.3608    3.6225 H       1  UNL1        0.0288
     11 H          -2.7155    5.2614    5.0039 H       1  UNL1        0.0288
     12 H          -0.3683    5.6945    5.0559 H       1  UNL1        0.0560
     13 H          -0.2992    5.9015    3.2717 H       1  UNL1        0.0560
@<TRIPOS>BOND
     1     6     2    1
     2     8     3    1
     3     2     7    1
     4     2     3    1
     5     2     1    1
     6     3     9    1
     7     3     4    1
     8    13     5    1
     9    10     4    1
    10     1     5    1
    11     4     5    1
    12     4    11    1
    13     5    12    1
