@<TRIPOS>MOLECULE
1
 13 13 0 0 0
SMALL
GASTEIGER

@<TRIPOS>ATOM
      1 O          10.8557    1.9955    2.9022 O.3     1  UNL1       -0.3798
      2 C           9.5331    1.4720    3.1308 C.3     1  UNL1        0.0477
      3 C          10.8925    3.3726    3.3083 C.3     1  UNL1        0.0477
      4 C           9.4394    3.8170    3.4545 C.3     1  UNL1       -0.0274
      5 C           8.7788    2.5280    3.9355 C.3     1  UNL1       -0.0274
      6 H           9.0544    1.2974    2.1581 H       1  UNL1        0.0560
      7 H           9.6195    0.5171    3.6545 H       1  UNL1        0.0560
      8 H          11.4451    3.9424    2.5558 H       1  UNL1        0.0560
      9 H          11.4154    3.4496    4.2713 H       1  UNL1        0.0560
     10 H           9.3309    4.6416    4.1549 H       1  UNL1        0.0288
     11 H           9.0295    4.1158    2.4894 H       1  UNL1        0.0288
     12 H           7.7092    2.4992    3.7437 H       1  UNL1        0.0288
     13 H           8.9491    2.3905    5.0036 H       1  UNL1        0.0288
@<TRIPOS>BOND
     1     6     2    1
     2    11     4    1
     3     8     3    1
     4     1     2    1
     5     1     3    1
     6     2     7    1
     7     2     5    1
     8     3     4    1
     9     3     9    1
    10     4     5    1
    11     4    10    1
    12    12     5    1
    13     5    13    1
