@<TRIPOS>MOLECULE
1
 13 13 0 0 0
SMALL
GASTEIGER

@<TRIPOS>ATOM
      1 O          -4.8868    2.6975    2.9787 O.3     1  UNL1       -0.3798
      2 C          -5.6462    3.7644    3.5415 C.3     1  UNL1        0.0477
      3 H          -5.0379    4.2497    4.3041 H       1  UNL1        0.0560
      4 H          -6.5577    3.3543    4.0001 H       1  UNL1        0.0560
      5 C          -5.9223    3.7612    1.1428 C.3     1  UNL1       -0.0274
      6 H          -6.8643    3.7037    0.6014 H       1  UNL1        0.0288
      7 H          -5.1486    4.0952    0.4556 H       1  UNL1        0.0288
      8 C          -5.5468    2.4037    1.7501 C.3     1  UNL1        0.0477
      9 H          -6.4542    1.8187    1.9573 H       1  UNL1        0.0560
     10 H          -4.8641    1.8186    1.1336 H       1  UNL1        0.0560
     11 C          -6.0044    4.6871    2.3680 C.3     1  UNL1       -0.0274
     12 H          -6.9942    5.1201    2.4951 H       1  UNL1        0.0288
     13 H          -5.2828    5.4983    2.2905 H       1  UNL1        0.0288
@<TRIPOS>BOND
     1     7     5    1
     2     6     5    1
     3    10     8    1
     4     5     8    1
     5     5    11    1
     6     8     9    1
     7     8     1    1
     8    13    11    1
     9    11    12    1
    10    11     2    1
    11     1     2    1
    12     2     4    1
    13     2     3    1
