@<TRIPOS>MOLECULE
1
 13 13 0 0 0
SMALL
GASTEIGER

@<TRIPOS>ATOM
      1 O           7.9439   14.6381    5.7428 O.3     1  UNL1       -0.3798
      2 C           7.5108   15.3614    6.8899 C.3     1  UNL1        0.0477
      3 H           8.3183   16.0171    7.2480 H       1  UNL1        0.0560
      4 H           7.2599   14.6514    7.6758 H       1  UNL1        0.0560
      5 C           7.9063   15.5739    4.6580 C.3     1  UNL1        0.0477
      6 H           7.6658   15.0128    3.7541 H       1  UNL1        0.0560
      7 H           8.8980   16.0297    4.5454 H       1  UNL1        0.0560
      8 C           6.8429   16.6318    5.0072 C.3     1  UNL1       -0.0274
      9 H           7.2913   17.6236    5.0618 H       1  UNL1        0.0288
     10 H           6.0452   16.6550    4.2695 H       1  UNL1        0.0288
     11 C           6.3339   16.1858    6.3811 C.3     1  UNL1       -0.0274
     12 H           5.4635   15.5394    6.2695 H       1  UNL1        0.0288
     13 H           6.0864   17.0181    7.0358 H       1  UNL1        0.0288
@<TRIPOS>BOND
     1     6     5    1
     2    10     8    1
     3     7     5    1
     4     5     8    1
     5     5     1    1
     6     8     9    1
     7     8    11    1
     8     1     2    1
     9    12    11    1
    10    11     2    1
    11    11    13    1
    12     2     3    1
    13     2     4    1
