@<TRIPOS>MOLECULE
2
 14 13 0 0 0
SMALL
GASTEIGER

@<TRIPOS>ATOM
      1 SI         -1.6068    2.6293    2.2372 Si      1  UNL1        0.0000
      2 O          -0.1689    1.8679    2.2493 O.3     1  UNL1        0.0000
      3 C          -1.9782    3.2038    4.0214 C.3     1  UNL1        0.0000
      4 C          -2.8614    1.3262    1.6217 C.3     1  UNL1        0.0000
      5 C          -1.4763    4.1134    1.0380 C.3     1  UNL1        0.0000
      6 H          -2.9836    3.6017    4.1157 H       1  UNL1        0.0000
      7 H          -1.2832    3.9772    4.3373 H       1  UNL1        0.0000
      8 H          -1.8783    2.3734    4.7153 H       1  UNL1        0.0000
      9 H          -3.8557    1.7533    1.5439 H       1  UNL1        0.0000
     10 H          -2.9074    0.4821    2.3032 H       1  UNL1        0.0000
     11 H          -2.5811    0.9420    0.6456 H       1  UNL1        0.0000
     12 H          -2.4149    4.6550    0.9787 H       1  UNL1        0.0000
     13 H          -0.7102    4.8134    1.3604 H       1  UNL1        0.0000
     14 H          -1.2197    3.7858    0.0341 H       1  UNL1        0.0000
@<TRIPOS>BOND
     1    14     5    1
     2    11     4    1
     3    12     5    1
     4     5    13    1
     5     5     1    1
     6     9     4    1
     7     4     1    1
     8     4    10    1
     9     1     2    1
    10     1     3    1
    11     3     6    1
    12     3     7    1
    13     3     8    1
