@<TRIPOS>MOLECULE
1
 13 13 0 0 0
SMALL
GASTEIGER

@<TRIPOS>ATOM
      1 O           9.1335    2.4342    4.7279 O.3     1  UNL1       -0.3798
      2 C          10.3410    3.1993    4.5883 C.3     1  UNL1        0.0477
      3 H          10.1186    4.2564    4.7740 H       1  UNL1        0.0560
      4 H          10.6917    3.0714    3.5631 H       1  UNL1        0.0560
      5 C          11.3452    2.6705    5.6283 C.3     1  UNL1       -0.0274
      6 H          11.5857    3.4512    6.3488 H       1  UNL1        0.0288
      7 H          12.2693    2.3319    5.1648 H       1  UNL1        0.0288
      8 C          10.5911    1.5272    6.3108 C.3     1  UNL1       -0.0274
      9 H          10.8210    1.4419    7.3695 H       1  UNL1        0.0288
     10 H          10.8078    0.5746    5.8260 H       1  UNL1        0.0288
     11 C           9.1395    1.9203    6.0633 C.3     1  UNL1        0.0477
     12 H           8.4445    1.0789    6.1056 H       1  UNL1        0.0560
     13 H           8.8310    2.7117    6.7602 H       1  UNL1        0.0560
@<TRIPOS>BOND
     1     4     2    1
     2     2     1    1
     3     2     3    1
     4     2     5    1
     5     1    11    1
     6     7     5    1
     7     5     8    1
     8     5     6    1
     9    10     8    1
    10    11    12    1
    11    11     8    1
    12    11    13    1
    13     8     9    1
