@<TRIPOS>MOLECULE
1
 13 13 0 0 0
SMALL
GASTEIGER

@<TRIPOS>ATOM
      1 O          16.9093    7.0732    5.1989 O.3     1  UNL1       -0.3798
      2 C          17.6194    8.2957    5.0462 C.3     1  UNL1        0.0477
      3 H          17.3405    8.9581    5.8676 H       1  UNL1        0.0560
      4 H          17.3421    8.7668    4.0911 H       1  UNL1        0.0560
      5 C          19.1024    7.9052    5.0434 C.3     1  UNL1       -0.0274
      6 H          19.6876    8.5698    4.4119 H       1  UNL1        0.0288
      7 H          19.5089    7.9495    6.0530 H       1  UNL1        0.0288
      8 C          19.0887    6.4579    4.5221 C.3     1  UNL1       -0.0274
      9 H          19.6078    6.3603    3.5711 H       1  UNL1        0.0288
     10 H          19.5563    5.7817    5.2354 H       1  UNL1        0.0288
     11 C          17.5932    6.1415    4.3668 C.3     1  UNL1        0.0477
     12 H          17.3159    5.1375    4.6907 H       1  UNL1        0.0560
     13 H          17.2751    6.2795    3.3236 H       1  UNL1        0.0560
@<TRIPOS>BOND
     1    13    11    1
     2     9     8    1
     3     4     2    1
     4    11     8    1
     5    11    12    1
     6    11     1    1
     7     6     5    1
     8     8     5    1
     9     8    10    1
    10     5     2    1
    11     5     7    1
    12     2     1    1
    13     2     3    1
