@<TRIPOS>MOLECULE
3
 67 70 0 0 0
SMALL
GASTEIGER

@<TRIPOS>ATOM
      1 N           3.5825    4.8987    5.7668 N.ar    1  UNL1        0.0000
      2 N           5.5864    5.0604    6.8137 N.ar    1  UNL1        0.0000
      3 O           6.5095    3.8062    3.9382 O.3     1  UNL1        0.0000
      4 B           4.9731    4.9263    5.5347 B       1  UNL1        0.0000
      5 C           2.4799    4.8119    4.8817 C.ar    1  UNL1        0.0000
      6 C           2.0598    3.5602    4.4218 C.ar    1  UNL1        0.0000
      7 C           0.9787    3.5003    3.5527 C.ar    1  UNL1        0.0000
      8 H           0.6474    2.5437    3.1789 H       1  UNL1        0.0000
      9 C           0.3146    4.6475    3.1645 C.ar    1  UNL1        0.0000
     10 H          -0.5308    4.5834    2.4950 H       1  UNL1        0.0000
     11 C           0.7329    5.8778    3.6329 C.ar    1  UNL1        0.0000
     12 H           0.2072    6.7691    3.3252 H       1  UNL1        0.0000
     13 C           1.8210    5.9815    4.4886 C.ar    1  UNL1        0.0000
     14 C           2.2775    7.3392    4.9701 C.3     1  UNL1        0.0000
     15 H           3.1814    7.2099    5.5715 H       1  UNL1        0.0000
     16 C           2.6292    8.2424    3.7862 C.3     1  UNL1        0.0000
     17 H           3.3463    7.7459    3.1363 H       1  UNL1        0.0000
     18 H           3.0673    9.1725    4.1418 H       1  UNL1        0.0000
     19 H           1.7457    8.4834    3.2005 H       1  UNL1        0.0000
     20 C           1.2087    7.9893    5.8513 C.3     1  UNL1        0.0000
     21 H           0.2897    8.1489    5.2924 H       1  UNL1        0.0000
     22 H           1.5593    8.9514    6.2189 H       1  UNL1        0.0000
     23 H           0.9835    7.3552    6.7058 H       1  UNL1        0.0000
     24 C           2.7698    2.2975    4.8449 C.3     1  UNL1        0.0000
     25 H           3.4574    2.5352    5.6593 H       1  UNL1        0.0000
     26 C           3.5951    1.7458    3.6789 C.3     1  UNL1        0.0000
     27 H           2.9759    1.6392    2.7901 H       1  UNL1        0.0000
     28 H           3.9985    0.7708    3.9452 H       1  UNL1        0.0000
     29 H           4.4350    2.4143    3.4523 H       1  UNL1        0.0000
     30 C           1.7934    1.2383    5.3610 C.3     1  UNL1        0.0000
     31 H           1.1793    0.8373    4.5585 H       1  UNL1        0.0000
     32 H           1.1374    1.6600    6.1198 H       1  UNL1        0.0000
     33 H           2.3536    0.4185    5.8053 H       1  UNL1        0.0000
     34 C           3.3893    5.0549    7.1328 C.ar    1  UNL1        0.0000
     35 H           2.4024    5.0826    7.5527 H       1  UNL1        0.0000
     36 C           4.5775    5.1540    7.7595 C.ar    1  UNL1        0.0000
     37 H           4.7507    5.3626    8.7951 H       1  UNL1        0.0000
     38 C           6.9693    5.1574    6.9820 C.ar    1  UNL1        0.0000
     39 C           7.6954    5.7203    5.9066 C.ar    1  UNL1        0.0000
     40 C           9.0450    5.9763    6.0867 C.ar    1  UNL1        0.0000
     41 H           9.6090    6.4793    5.3167 H       1  UNL1        0.0000
     42 C           9.6939    5.6369    7.2629 C.ar    1  UNL1        0.0000
     43 H          10.7396    5.8765    7.3929 H       1  UNL1        0.0000
     44 C           9.0014    4.9751    8.2531 C.ar    1  UNL1        0.0000
     45 H           9.5221    4.6705    9.1484 H       1  UNL1        0.0000
     46 C           7.6424    4.7049    8.1275 C.ar    1  UNL1        0.0000
     47 C           6.9661    3.9261    9.2364 C.3     1  UNL1        0.0000
     48 H           5.9514    3.6738    8.9271 H       1  UNL1        0.0000
     49 C           7.6699    2.5936    9.5116 C.3     1  UNL1        0.0000
     50 H           7.6201    1.9483    8.6375 H       1  UNL1        0.0000
     51 H           7.1688    2.0847   10.3324 H       1  UNL1        0.0000
     52 H           8.7119    2.7328    9.7879 H       1  UNL1        0.0000
     53 C           6.9021    4.7656   10.5165 C.3     1  UNL1        0.0000
     54 H           7.9014    4.9464   10.9058 H       1  UNL1        0.0000
     55 H           6.3256    4.2479   11.2805 H       1  UNL1        0.0000
     56 H           6.4380    5.7320   10.3272 H       1  UNL1        0.0000
     57 C           6.9965    6.1017    4.6087 C.3     1  UNL1        0.0000
     58 C           7.9501    6.1801    3.4124 C.3     1  UNL1        0.0000
     59 H           8.7095    6.9493    3.5325 H       1  UNL1        0.0000
     60 H           7.3713    6.4199    2.5223 H       1  UNL1        0.0000
     61 H           8.4237    5.2077    3.2560 H       1  UNL1        0.0000
     62 C           6.3387    7.4749    4.8059 C.3     1  UNL1        0.0000
     63 H           7.1035    8.2270    4.9930 H       1  UNL1        0.0000
     64 H           5.6549    7.4657    5.6506 H       1  UNL1        0.0000
     65 H           5.7823    7.7593    3.9159 H       1  UNL1        0.0000
     66 C           5.9125    5.0270    4.2577 C.3     1  UNL1        0.0000
     67 H           5.3752    5.3952    3.3600 H       1  UNL1        0.0000
@<TRIPOS>BOND
     1    10     9    1
     2    60    58    1
     3    27    26    1
     4    17    16    1
     5     9     7   ar
     6     9    11   ar
     7     8     7    1
     8    19    16    1
     9    61    58    1
    10    12    11    1
    11    67    66    1
    12    58    59    1
    13    58    57    1
    14    29    26    1
    15     7     6   ar
    16    11    13   ar
    17    26    28    1
    18    26    24    1
    19    16    18    1
    20    16    14    1
    21    65    62    1
    22     3    66    1
    23    66    57    1
    24    66     4    1
    25     6    24    1
    26     6     5   ar
    27    13     5   ar
    28    13    14    1
    29    31    30    1
    30    57    62    1
    31    57    39    1
    32    62    63    1
    33    62    64    1
    34    24    30    1
    35    24    25    1
    36     5     1    1
    37    14    15    1
    38    14    20    1
    39    21    20    1
    40    41    40    1
    41    30    33    1
    42    30    32    1
    43     4     1   ar
    44     4     2   ar
    45     1    34   ar
    46    20    22    1
    47    20    23    1
    48    39    40   ar
    49    39    38   ar
    50    40    42   ar
    51     2    38    1
    52     2    36   ar
    53    38    46   ar
    54    34    35    1
    55    34    36   ar
    56    42    43    1
    57    42    44   ar
    58    36    37    1
    59    46    44   ar
    60    46    47    1
    61    44    45    1
    62    50    49    1
    63    48    47    1
    64    47    49    1
    65    47    53    1
    66    49    52    1
    67    49    51    1
    68    56    53    1
    69    53    54    1
    70    53    55    1
