@<TRIPOS>MOLECULE
1
 13 13 0 0 0
SMALL
GASTEIGER

@<TRIPOS>ATOM
      1 O           8.0350    7.0057   10.4072 O.3     1  UNL1       -0.3798
      2 C           7.3186    7.4825    9.2738 C.3     1  UNL1        0.0477
      3 H           8.0002    8.0495    8.6234 H       1  UNL1        0.0560
      4 H           6.5141    8.1328    9.6163 H       1  UNL1        0.0560
      5 C           6.8194    6.2189    8.5703 C.3     1  UNL1       -0.0274
      6 H           5.8750    5.9031    9.0132 H       1  UNL1        0.0288
      7 H           6.6686    6.3800    7.5060 H       1  UNL1        0.0288
      8 C           7.9315    5.2000    8.8680 C.3     1  UNL1       -0.0274
      9 H           8.5110    4.9589    7.9791 H       1  UNL1        0.0288
     10 H           7.5195    4.2737    9.2659 H       1  UNL1        0.0288
     11 C           8.8095    5.9171    9.9090 C.3     1  UNL1        0.0477
     12 H           9.0934    5.2834   10.7505 H       1  UNL1        0.0560
     13 H           9.7235    6.3080    9.4415 H       1  UNL1        0.0560
@<TRIPOS>BOND
     1     7     5    1
     2     9     8    1
     3     5     8    1
     4     5     6    1
     5     5     2    1
     6     3     2    1
     7     8    10    1
     8     8    11    1
     9     2     4    1
    10     2     1    1
    11    13    11    1
    12    11     1    1
    13    11    12    1
