@<TRIPOS>MOLECULE
1
 13 13 0 0 0
SMALL
GASTEIGER

@<TRIPOS>ATOM
      1 O           8.0745    5.2159   13.3866 O.3     1  UNL1       -0.3798
      2 C           7.1686    4.2164   12.8867 C.3     1  UNL1        0.0477
      3 H           6.2738    4.1968   13.5220 H       1  UNL1        0.0560
      4 H           6.8712    4.4907   11.8715 H       1  UNL1        0.0560
      5 C           7.9127    2.8891   12.9633 C.3     1  UNL1       -0.0274
      6 H           8.5578    2.7575   12.0930 H       1  UNL1        0.0288
      7 H           7.2335    2.0434   13.0327 H       1  UNL1        0.0288
      8 C           8.7546    3.0923   14.2198 C.3     1  UNL1       -0.0274
      9 H           8.1463    2.9299   15.1107 H       1  UNL1        0.0288
     10 H           9.6253    2.4431   14.2637 H       1  UNL1        0.0288
     11 C           9.1463    4.5607   14.0910 C.3     1  UNL1        0.0477
     12 H           9.2875    5.0575   15.0562 H       1  UNL1        0.0560
     13 H          10.0679    4.6649   13.5050 H       1  UNL1        0.0560
@<TRIPOS>BOND
     1     4     2    1
     2     6     5    1
     3     2     5    1
     4     2     1    1
     5     2     3    1
     6     5     7    1
     7     5     8    1
     8     1    11    1
     9    13    11    1
    10    11     8    1
    11    11    12    1
    12     8    10    1
    13     8     9    1
