@<TRIPOS>MOLECULE
1
 13 13 0 0 0
SMALL
GASTEIGER

@<TRIPOS>ATOM
      1 O           7.8181    9.8737   11.3770 O.3     1  UNL1       -0.3798
      2 C           6.7228   10.7897   11.3564 C.3     1  UNL1        0.0477
      3 H           6.6814   11.3342   12.3094 H       1  UNL1        0.0560
      4 H           5.7989   10.2256   11.2182 H       1  UNL1        0.0560
      5 C           7.0399   11.7381   10.2044 C.3     1  UNL1       -0.0274
      6 H           6.7532   11.2807    9.2570 H       1  UNL1        0.0288
      7 H           6.5226   12.6888   10.3037 H       1  UNL1        0.0288
      8 C           8.5644   11.8744   10.3026 C.3     1  UNL1       -0.0274
      9 H           8.8462   12.8069   10.7883 H       1  UNL1        0.0288
     10 H           9.0337   11.8473    9.3214 H       1  UNL1        0.0288
     11 C           8.9881   10.6714   11.1648 C.3     1  UNL1        0.0477
     12 H           9.7348   10.0419   10.6757 H       1  UNL1        0.0560
     13 H           9.3801   11.0052   12.1358 H       1  UNL1        0.0560
@<TRIPOS>BOND
     1     6     5    1
     2    10     8    1
     3     5     8    1
     4     5     7    1
     5     5     2    1
     6     8     9    1
     7     8    11    1
     8    12    11    1
     9    11     1    1
    10    11    13    1
    11     4     2    1
    12     2     1    1
    13     2     3    1
