@<TRIPOS>MOLECULE
1
 13 13 0 0 0
SMALL
GASTEIGER

@<TRIPOS>ATOM
      1 O          -0.1499    6.0078   11.4454 O.3     1  UNL1       -0.3798
      2 C          -0.8030    7.2414   11.7836 C.3     1  UNL1        0.0477
      3 C           0.2432    8.1649   12.4224 C.3     1  UNL1       -0.0274
      4 C           1.5621    7.4953   12.0463 C.3     1  UNL1       -0.0274
      5 C           1.1565    6.0271   12.0198 C.3     1  UNL1        0.0477
      6 H          -1.2004    7.6675   10.8568 H       1  UNL1        0.0560
      7 H          -1.6291    7.0350   12.4756 H       1  UNL1        0.0560
      8 H           0.1683    9.1793   12.0394 H       1  UNL1        0.0288
      9 H           0.1243    8.1900   13.5065 H       1  UNL1        0.0288
     10 H           1.8730    7.8041   11.0499 H       1  UNL1        0.0288
     11 H           2.3615    7.6952   12.7556 H       1  UNL1        0.0288
     12 H           1.8125    5.4138   11.3987 H       1  UNL1        0.0560
     13 H           1.1174    5.6186   13.0418 H       1  UNL1        0.0560
@<TRIPOS>BOND
     1     6     2    1
     2    10     4    1
     3    12     5    1
     4     1     2    1
     5     1     5    1
     6     2     3    1
     7     2     7    1
     8     5     4    1
     9     5    13    1
    10     8     3    1
    11     4     3    1
    12     4    11    1
    13     3     9    1
