@<TRIPOS>MOLECULE
1
 13 13 0 0 0
SMALL
GASTEIGER

@<TRIPOS>ATOM
      1 O           1.6020   13.2394    3.2331 O.3     1  UNL1       -0.3798
      2 C           0.3775   13.2961    3.9714 C.3     1  UNL1        0.0477
      3 H           0.6217   13.5931    4.9931 H       1  UNL1        0.0560
      4 H          -0.2787   14.0521    3.5196 H       1  UNL1        0.0560
      5 C           1.3581   12.3186    2.1688 C.3     1  UNL1        0.0477
      6 H           2.3246   12.0262    1.7541 H       1  UNL1        0.0560
      7 H           0.7456   12.8056    1.3969 H       1  UNL1        0.0560
      8 C          -0.2638   11.8990    3.8778 C.3     1  UNL1       -0.0274
      9 H          -0.2328   11.3831    4.8346 H       1  UNL1        0.0288
     10 H          -1.3042   11.9752    3.5659 H       1  UNL1        0.0288
     11 C           0.5881   11.1738    2.8254 C.3     1  UNL1       -0.0274
     12 H          -0.0127   10.6189    2.1089 H       1  UNL1        0.0288
     13 H           1.2870   10.4904    3.3049 H       1  UNL1        0.0288
@<TRIPOS>BOND
     1     7     5    1
     2     6     5    1
     3    12    11    1
     4     5    11    1
     5     5     1    1
     6    11    13    1
     7    11     8    1
     8     1     2    1
     9     4     2    1
    10    10     8    1
    11     8     2    1
    12     8     9    1
    13     2     3    1
