@<TRIPOS>MOLECULE
1
 13 13 0 0 0
SMALL
GASTEIGER

@<TRIPOS>ATOM
      1 O          -0.6018    5.3528    2.5132 O.3     1  UNL1       -0.3798
      2 C          -0.2838    3.9914    2.8595 C.3     1  UNL1        0.0477
      3 H          -0.9013    3.3234    2.2534 H       1  UNL1        0.0560
      4 H          -0.5273    3.8452    3.9173 H       1  UNL1        0.0560
      5 C           1.2129    3.8013    2.6152 C.3     1  UNL1       -0.0274
      6 H           1.6518    3.0999    3.3200 H       1  UNL1        0.0288
      7 H           1.3958    3.4450    1.6009 H       1  UNL1        0.0288
      8 C           1.7404    5.2232    2.7784 C.3     1  UNL1       -0.0274
      9 H           2.6951    5.3876    2.2854 H       1  UNL1        0.0288
     10 H           1.8300    5.4710    3.8356 H       1  UNL1        0.0288
     11 C           0.6112    6.0246    2.1442 C.3     1  UNL1        0.0477
     12 H           0.5490    7.0560    2.4936 H       1  UNL1        0.0560
     13 H           0.7043    6.0189    1.0492 H       1  UNL1        0.0560
@<TRIPOS>BOND
     1    13    11    1
     2     7     5    1
     3    11    12    1
     4    11     1    1
     5    11     8    1
     6     3     2    1
     7     9     8    1
     8     1     2    1
     9     5     8    1
    10     5     2    1
    11     5     6    1
    12     8    10    1
    13     2     4    1
