@<TRIPOS>MOLECULE
1
 13 13 0 0 0
SMALL
GASTEIGER

@<TRIPOS>ATOM
      1 O           8.5953    8.6302    2.8170 O.3     1  UNL1       -0.3798
      2 C           8.9239    8.6634    1.4291 C.3     1  UNL1        0.0477
      3 H           8.0143    8.4814    0.8568 H       1  UNL1        0.0560
      4 H           9.6596    7.8769    1.2095 H       1  UNL1        0.0560
      5 C           9.5350   10.0461    1.2045 C.3     1  UNL1       -0.0274
      6 H           8.7462   10.7787    1.0451 H       1  UNL1        0.0288
      7 H          10.2082   10.0599    0.3509 H       1  UNL1        0.0288
      8 C          10.2529   10.3206    2.5336 C.3     1  UNL1       -0.0274
      9 H          10.0096   11.3113    2.9113 H       1  UNL1        0.0288
     10 H          11.3337   10.2434    2.4315 H       1  UNL1        0.0288
     11 C           9.7151    9.2276    3.4744 C.3     1  UNL1        0.0477
     12 H          10.4766    8.4572    3.6528 H       1  UNL1        0.0560
     13 H           9.3690    9.6271    4.4281 H       1  UNL1        0.0560
@<TRIPOS>BOND
     1     7     5    1
     2     3     2    1
     3     6     5    1
     4     5     2    1
     5     5     8    1
     6     4     2    1
     7     2     1    1
     8    10     8    1
     9     8     9    1
    10     8    11    1
    11     1    11    1
    12    11    12    1
    13    11    13    1
