@<TRIPOS>MOLECULE
1
 35 37 0 0 0
SMALL
GASTEIGER

@<TRIPOS>ATOM
      1 O          -1.3257    3.1566    9.1524 O.3     1  UNL1        0.0000
      2 SI         -1.5014    4.0948   10.4313 Si      1  UNL1        0.0000
      3 C          -0.9591    5.8557    9.9732 C.ar    1  UNL1        0.0000
      4 C          -0.4289    6.0802    8.7068 C.ar    1  UNL1        0.0000
      5 H          -0.3373    5.2329    8.0338 H       1  UNL1        0.0000
      6 C          -0.0416    7.3454    8.3040 C.ar    1  UNL1        0.0000
      7 H           0.3651    7.5004    7.3147 H       1  UNL1        0.0000
      8 C          -0.1828    8.4164    9.1707 C.ar    1  UNL1        0.0000
      9 H           0.1186    9.4072    8.8628 H       1  UNL1        0.0000
     10 C          -0.7212    8.2140   10.4306 C.ar    1  UNL1        0.0000
     11 H          -0.8430    9.0498   11.1050 H       1  UNL1        0.0000
     12 C          -1.1083    6.9451   10.8233 C.ar    1  UNL1        0.0000
     13 H          -1.5452    6.7988   11.8007 H       1  UNL1        0.0000
     14 C          -0.4848    3.3373   11.8464 C.ar    1  UNL1        0.0000
     15 C          -0.0984    4.0468   12.9768 C.ar    1  UNL1        0.0000
     16 H          -0.3592    5.0914   13.0606 H       1  UNL1        0.0000
     17 C           0.6218    3.4394   13.9906 C.ar    1  UNL1        0.0000
     18 H           0.9130    4.0077   14.8626 H       1  UNL1        0.0000
     19 C           0.9716    2.1036   13.8887 C.ar    1  UNL1        0.0000
     20 H           1.5340    1.6280   14.6793 H       1  UNL1        0.0000
     21 C           0.5994    1.3810   12.7671 C.ar    1  UNL1        0.0000
     22 H           0.8733    0.3385   12.6824 H       1  UNL1        0.0000
     23 C          -0.1224    1.9958   11.7604 C.ar    1  UNL1        0.0000
     24 H          -0.4173    1.4390   10.8764 H       1  UNL1        0.0000
     25 C          -3.3390    4.1699   10.9263 C.ar    1  UNL1        0.0000
     26 C          -3.7737    4.1957   12.2462 C.ar    1  UNL1        0.0000
     27 H          -3.0439    4.1601   13.0427 H       1  UNL1        0.0000
     28 C          -5.1223    4.2571   12.5526 C.ar    1  UNL1        0.0000
     29 H          -5.4417    4.2756   13.5851 H       1  UNL1        0.0000
     30 C          -6.0633    4.2931   11.5378 C.ar    1  UNL1        0.0000
     31 H          -7.1162    4.3400   11.7756 H       1  UNL1        0.0000
     32 C          -5.6488    4.2682   10.2160 C.ar    1  UNL1        0.0000
     33 H          -6.3800    4.2981    9.4203 H       1  UNL1        0.0000
     34 C          -4.2997    4.2085    9.9189 C.ar    1  UNL1        0.0000
     35 H          -3.9680    4.1905    8.8859 H       1  UNL1        0.0000
@<TRIPOS>BOND
     1     7     6    1
     2     5     4    1
     3     6     4   ar
     4     6     8   ar
     5     4     3   ar
     6     9     8    1
     7    35    34    1
     8     1     2    1
     9     8    10   ar
    10    33    32    1
    11    34    32   ar
    12    34    25   ar
    13     3     2    1
    14     3    12   ar
    15    32    30   ar
    16    10    12   ar
    17    10    11    1
    18     2    25    1
    19     2    14    1
    20    12    13    1
    21    24    23    1
    22    25    26   ar
    23    30    31    1
    24    30    28   ar
    25    23    14   ar
    26    23    21   ar
    27    14    15   ar
    28    26    28   ar
    29    26    27    1
    30    28    29    1
    31    22    21    1
    32    21    19   ar
    33    15    16    1
    34    15    17   ar
    35    19    17   ar
    36    19    20    1
    37    17    18    1
