@<TRIPOS>MOLECULE
1
 13 13 0 0 0
SMALL
GASTEIGER

@<TRIPOS>ATOM
      1 O           6.5243   12.0797    4.2366 O.3     1  UNL1       -0.3798
      2 C           6.5564   13.0352    5.2934 C.3     1  UNL1        0.0477
      3 H           7.4714   13.6194    5.1837 H       1  UNL1        0.0560
      4 H           6.5754   12.5080    6.2580 H       1  UNL1        0.0560
      5 C           5.2732   13.8765    5.1646 C.3     1  UNL1       -0.0274
      6 H           4.7950   14.0015    6.1343 H       1  UNL1        0.0288
      7 H           5.4898   14.8635    4.7618 H       1  UNL1        0.0288
      8 C           4.3956   13.0658    4.1966 C.3     1  UNL1       -0.0274
      9 H           3.3847   12.9208    4.5702 H       1  UNL1        0.0288
     10 H           4.3371   13.5582    3.2267 H       1  UNL1        0.0288
     11 C           5.1507   11.7409    4.0700 C.3     1  UNL1        0.0477
     12 H           4.8435   11.0500    4.8695 H       1  UNL1        0.0560
     13 H           5.0467   11.2583    3.0968 H       1  UNL1        0.0560
@<TRIPOS>BOND
     1    13    11    1
     2    10     8    1
     3    11     8    1
     4    11     1    1
     5    11    12    1
     6     8     9    1
     7     8     5    1
     8     1     2    1
     9     7     5    1
    10     5     2    1
    11     5     6    1
    12     3     2    1
    13     2     4    1
