@<TRIPOS>MOLECULE
1
 13 13 0 0 0
SMALL
GASTEIGER

@<TRIPOS>ATOM
      1 O           1.1057   14.8685   17.1088 O.3     1  UNL1       -0.3798
      2 C           1.3990   15.4810   18.3611 C.3     1  UNL1        0.0477
      3 H           1.3875   14.6996   19.1223 H       1  UNL1        0.0560
      4 H           0.6260   16.2254   18.5962 H       1  UNL1        0.0560
      5 C           2.7720   16.1644   18.2110 C.3     1  UNL1       -0.0274
      6 H           2.7344   17.1874   18.5811 H       1  UNL1        0.0288
      7 H           3.5412   15.6303   18.7648 H       1  UNL1        0.0288
      8 C           3.0409   16.1183   16.6988 C.3     1  UNL1       -0.0274
      9 H           3.7812   15.3541   16.4657 H       1  UNL1        0.0288
     10 H           3.3868   17.0707   16.3042 H       1  UNL1        0.0288
     11 C           1.6797   15.7200   16.1248 C.3     1  UNL1        0.0477
     12 H           1.7361   15.1626   15.1902 H       1  UNL1        0.0560
     13 H           1.0459   16.6070   15.9844 H       1  UNL1        0.0560
@<TRIPOS>BOND
     1    12    11    1
     2    13    11    1
     3    11     8    1
     4    11     1    1
     5    10     8    1
     6     9     8    1
     7     8     5    1
     8     1     2    1
     9     5     2    1
    10     5     6    1
    11     5     7    1
    12     2     4    1
    13     2     3    1
