@<TRIPOS>MOLECULE
1
 13 13 0 0 0
SMALL
GASTEIGER

@<TRIPOS>ATOM
      1 O           4.6889    6.0799    2.1068 O.3     1  UNL1       -0.3798
      2 C           4.8095    4.6538    2.0725 C.3     1  UNL1        0.0477
      3 H           4.3368    4.2478    2.9688 H       1  UNL1        0.0560
      4 H           4.3004    4.2687    1.1783 H       1  UNL1        0.0560
      5 C           6.3182    4.3999    2.0002 C.3     1  UNL1       -0.0274
      6 H           6.5419    3.4715    1.4806 H       1  UNL1        0.0288
      7 H           6.7350    4.3436    3.0050 H       1  UNL1        0.0288
      8 C           6.8472    5.6379    1.2563 C.3     1  UNL1       -0.0274
      9 H           7.2668    5.3853    0.2849 H       1  UNL1        0.0288
     10 H           7.6129    6.1472    1.8397 H       1  UNL1        0.0288
     11 C           5.5998    6.5235    1.1022 C.3     1  UNL1        0.0477
     12 H           5.7968    7.5872    1.2535 H       1  UNL1        0.0560
     13 H           5.1420    6.3839    0.1130 H       1  UNL1        0.0560
@<TRIPOS>BOND
     1    13    11    1
     2     9     8    1
     3    11    12    1
     4    11     8    1
     5    11     1    1
     6     4     2    1
     7     8    10    1
     8     8     5    1
     9     6     5    1
    10     5     2    1
    11     5     7    1
    12     2     1    1
    13     2     3    1
