@<TRIPOS>MOLECULE
2
 17 16 0 0 0
SMALL
GASTEIGER

@<TRIPOS>ATOM
      1 SI          6.2715   17.1060    0.7304 Si      1  UNL1        0.0000
      2 O           2.5830   17.0301    0.5033 O.co2   1  UNL1        0.0000
      3 C           3.8013   17.0760    0.1621 C.2     1  UNL1        0.0000
      4 O           4.6633   16.8823    1.1823 O.3     1  UNL1        0.0000
      5 O           4.2195   17.2827   -0.9543 O.co2   1  UNL1        0.0000
      6 C           6.5489   18.8900    0.1196 C.3     1  UNL1        0.0000
      7 H           6.0595   19.0564   -0.8346 H       1  UNL1        0.0000
      8 H           7.6078   19.0902   -0.0087 H       1  UNL1        0.0000
      9 H           6.1587   19.6222    0.8232 H       1  UNL1        0.0000
     10 C           7.2053   16.8864    2.3769 C.3     1  UNL1        0.0000
     11 H           7.0622   17.7338    3.0397 H       1  UNL1        0.0000
     12 H           8.2670   16.8226    2.1671 H       1  UNL1        0.0000
     13 H           6.9227   15.9911    2.9205 H       1  UNL1        0.0000
     14 C           6.8464   15.7873   -0.5177 C.3     1  UNL1        0.0000
     15 H           6.7153   14.7768   -0.1386 H       1  UNL1        0.0000
     16 H           7.9002   15.9169   -0.7421 H       1  UNL1        0.0000
     17 H           6.2952   15.8682   -1.4491 H       1  UNL1        0.0000
@<TRIPOS>BOND
     1    17    14    1
     2     5     3   ar
     3     7     6    1
     4    16    14    1
     5    14    15    1
     6    14     1    1
     7     8     6    1
     8     6     1    1
     9     6     9    1
    10     3     2   ar
    11     3     4    1
    12     1     4    1
    13     1    10    1
    14    12    10    1
    15    10    13    1
    16    10    11    1
