@<TRIPOS>MOLECULE
1
 13 13 0 0 0
SMALL
GASTEIGER

@<TRIPOS>ATOM
      1 O           3.8204    0.0112    5.7399 O.3     1  UNL1       -0.3798
      2 C           4.3164   -1.3087    5.9537 C.3     1  UNL1        0.0477
      3 H           4.4406   -1.4901    7.0308 H       1  UNL1        0.0560
      4 H           5.2813   -1.3903    5.4509 H       1  UNL1        0.0560
      5 C           3.2376   -2.2176    5.3750 C.3     1  UNL1       -0.0274
      6 H           3.3139   -2.2283    4.2876 H       1  UNL1        0.0288
      7 H           3.3024   -3.2365    5.7470 H       1  UNL1        0.0288
      8 C           1.9607   -1.4995    5.8196 C.3     1  UNL1       -0.0274
      9 H           1.6162   -1.8898    6.7765 H       1  UNL1        0.0288
     10 H           1.1563   -1.6079    5.0964 H       1  UNL1        0.0288
     11 C           2.4054   -0.0329    5.9660 C.3     1  UNL1        0.0477
     12 H           1.9394    0.6250    5.2289 H       1  UNL1        0.0560
     13 H           2.1886    0.3476    6.9718 H       1  UNL1        0.0560
@<TRIPOS>BOND
     1     6     5    1
     2    10     8    1
     3    12    11    1
     4     5     7    1
     5     5     8    1
     6     5     2    1
     7     4     2    1
     8     1     2    1
     9     1    11    1
    10     8    11    1
    11     8     9    1
    12     2     3    1
    13    11    13    1
