@<TRIPOS>MOLECULE
1
 13 13 0 0 0
SMALL
GASTEIGER

@<TRIPOS>ATOM
      1 O          -2.3279    6.0804   10.4893 O.3     1  UNL1       -0.3798
      2 C          -3.7491    6.3025   10.5018 C.3     1  UNL1        0.0477
      3 H          -4.2278    5.4982   11.0661 H       1  UNL1        0.0560
      4 H          -4.1108    6.2750    9.4664 H       1  UNL1        0.0560
      5 C          -3.9829    7.6763   11.1260 C.3     1  UNL1       -0.0274
      6 H          -4.8741    8.1580   10.7318 H       1  UNL1        0.0288
      7 H          -4.0752    7.5935   12.2091 H       1  UNL1        0.0288
      8 C          -2.6928    8.4043   10.7613 C.3     1  UNL1       -0.0274
      9 H          -2.4802    9.2508   11.4087 H       1  UNL1        0.0288
     10 H          -2.7279    8.7456    9.7264 H       1  UNL1        0.0288
     11 C          -1.6695    7.2857   10.9139 C.3     1  UNL1        0.0477
     12 H          -0.7830    7.4230   10.2925 H       1  UNL1        0.0560
     13 H          -1.3668    7.1693   11.9619 H       1  UNL1        0.0560
@<TRIPOS>BOND
     1     4     2    1
     2    10     8    1
     3    12    11    1
     4     1     2    1
     5     1    11    1
     6     2     3    1
     7     2     5    1
     8     6     5    1
     9     8    11    1
    10     8     5    1
    11     8     9    1
    12    11    13    1
    13     5     7    1
