@<TRIPOS>MOLECULE
1
 30 30 0 0 0
SMALL
GASTEIGER

@<TRIPOS>ATOM
      1 O           4.1189    2.2318    2.8790 O.3     1  UNL1       -0.2873
      2 C           3.5779    1.3109    2.0881 C.ar    1  UNL1        0.1858
      3 C           3.9713   -0.0404    2.1854 C.ar    1  UNL1        0.0021
      4 C           3.3197   -0.9942    1.4208 C.ar    1  UNL1       -0.0547
      5 H           3.6082   -2.0311    1.5088 H       1  UNL1        0.0622
      6 C           2.3086   -0.6430    0.5476 C.ar    1  UNL1       -0.0610
      7 H           1.8039   -1.4004   -0.0337 H       1  UNL1        0.0618
      8 C           1.9694    0.6892    0.4013 C.ar    1  UNL1       -0.0547
      9 H           1.2099    0.9644   -0.3147 H       1  UNL1        0.0622
     10 C           2.5920    1.6766    1.1465 C.ar    1  UNL1        0.0021
     11 C           5.1132   -0.4347    3.0908 C.3     1  UNL1       -0.0179
     12 H           5.5311    0.4841    3.5152 H       1  UNL1        0.0345
     13 C           4.6294   -1.3180    4.2417 C.3     1  UNL1       -0.0585
     14 H           3.9212   -0.7749    4.8620 H       1  UNL1        0.0235
     15 H           5.4704   -1.6123    4.8663 H       1  UNL1        0.0235
     16 H           4.1444   -2.2161    3.8655 H       1  UNL1        0.0235
     17 C           6.2148   -1.1424    2.2978 C.3     1  UNL1       -0.0585
     18 H           5.8698   -2.1051    1.9288 H       1  UNL1        0.0235
     19 H           7.0826   -1.3143    2.9318 H       1  UNL1        0.0235
     20 H           6.5177   -0.5411    1.4425 H       1  UNL1        0.0235
     21 C           2.2854    3.1351    0.9048 C.3     1  UNL1       -0.0179
     22 H           2.7868    3.7254    1.6823 H       1  UNL1        0.0345
     23 C           2.8771    3.5397   -0.4495 C.3     1  UNL1       -0.0585
     24 H           3.9397    3.3125   -0.4739 H       1  UNL1        0.0235
     25 H           2.7506    4.6060   -0.6152 H       1  UNL1        0.0235
     26 H           2.3907    2.9976   -1.2582 H       1  UNL1        0.0235
     27 C           0.7844    3.4276    0.9323 C.3     1  UNL1       -0.0585
     28 H           0.2809    2.9657    0.0863 H       1  UNL1        0.0235
     29 H           0.6101    4.4998    0.8815 H       1  UNL1        0.0235
     30 H           0.3317    3.0465    1.8445 H       1  UNL1        0.0235
@<TRIPOS>BOND
     1    26    23    1
     2    25    23    1
     3    24    23    1
     4    23    21    1
     5     9     8    1
     6     7     6    1
     7    28    27    1
     8     8     6   ar
     9     8    10   ar
    10     6     4   ar
    11    29    27    1
    12    21    27    1
    13    21    10    1
    14    21    22    1
    15    27    30    1
    16    10     2   ar
    17     4     5    1
    18     4     3   ar
    19    20    17    1
    20    18    17    1
    21     2     3   ar
    22     2     1    1
    23     3    11    1
    24    17    19    1
    25    17    11    1
    26    11    12    1
    27    11    13    1
    28    16    13    1
    29    13    14    1
    30    13    15    1
