@<TRIPOS>MOLECULE
1
 134 141 0 0 0
SMALL
GASTEIGER

@<TRIPOS>ATOM
      1 O          13.8477    9.5367   15.1790 O.3     1  UNL1        0.0000
      2 SI         14.5473    9.5579   16.6041 Si      1  UNL1        0.0000
      3 C          14.4441    7.7353   17.2412 C.ar    1  UNL1        0.0000
      4 O          16.1020   10.1283   16.4336 O.3     1  UNL1        0.0000
      5 C          16.4389   11.4192   15.9637 C.3     1  UNL1        0.0000
      6 C          15.2547   12.3314   15.6928 C.ar    1  UNL1        0.0000
      7 C          14.0544   12.2163   16.3915 C.ar    1  UNL1        0.0000
      8 C          13.8562   11.1653   17.4433 C.3     1  UNL1        0.0000
      9 H          12.7845   11.1293   17.6487 H       1  UNL1        0.0000
     10 C          13.1828    7.2299   17.6175 C.ar    1  UNL1        0.0000
     11 C          12.9341    5.8604   17.6554 C.ar    1  UNL1        0.0000
     12 C          13.9120    4.9333   17.3734 C.ar    1  UNL1        0.0000
     13 H          13.6900    3.8789   17.3908 H       1  UNL1        0.0000
     14 C          15.1840    5.4007   17.1282 C.ar    1  UNL1        0.0000
     15 C          15.4557    6.7687   17.0673 C.ar    1  UNL1        0.0000
     16 C          11.9419    7.9653   18.1181 C.3     1  UNL1        0.0000
     17 C          10.9653    6.8346   18.5347 C.3     1  UNL1        0.0000
     18 H          10.9119    6.7657   19.6185 H       1  UNL1        0.0000
     19 H           9.9582    7.0424   18.1783 H       1  UNL1        0.0000
     20 C          11.5006    5.5153   17.9625 C.3     1  UNL1        0.0000
     21 C          16.3924    4.5248   16.9094 C.3     1  UNL1        0.0000
     22 C          17.5483    5.5353   17.0102 C.3     1  UNL1        0.0000
     23 H          18.2978    5.3502   16.2426 H       1  UNL1        0.0000
     24 H          18.0404    5.4328   17.9755 H       1  UNL1        0.0000
     25 C          16.9555    6.9572   16.8696 C.3     1  UNL1        0.0000
     26 C          10.1712    9.7295   17.4320 C.3     1  UNL1        0.0000
     27 H           9.4146    9.2088   18.0156 H       1  UNL1        0.0000
     28 H           9.6841   10.1610   16.5586 H       1  UNL1        0.0000
     29 H          10.5596   10.5458   18.0361 H       1  UNL1        0.0000
     30 C          11.2836    8.7838   16.9891 C.3     1  UNL1        0.0000
     31 H          12.0413    9.3487   16.4578 H       1  UNL1        0.0000
     32 H          10.8693    8.0695   16.2746 H       1  UNL1        0.0000
     33 C          12.2846    8.8322   19.3451 C.3     1  UNL1        0.0000
     34 H          12.8801    9.6796   19.0285 H       1  UNL1        0.0000
     35 H          11.3572    9.2117   19.7797 H       1  UNL1        0.0000
     36 C          13.0731    8.1112   20.4351 C.3     1  UNL1        0.0000
     37 H          12.4595    7.4001   20.9811 H       1  UNL1        0.0000
     38 H          13.4555    8.8392   21.1479 H       1  UNL1        0.0000
     39 H          13.9141    7.5735   20.0066 H       1  UNL1        0.0000
     40 C          12.2395    4.4021   20.1740 C.3     1  UNL1        0.0000
     41 H          13.2799    4.5461   19.8950 H       1  UNL1        0.0000
     42 H          12.1563    3.4759   20.7397 H       1  UNL1        0.0000
     43 H          11.9460    5.2183   20.8281 H       1  UNL1        0.0000
     44 C          11.3509    4.3334   18.9367 C.3     1  UNL1        0.0000
     45 H          10.3081    4.2759   19.2564 H       1  UNL1        0.0000
     46 H          11.5803    3.4114   18.3975 H       1  UNL1        0.0000
     47 C          10.8420    5.1488   16.6122 C.3     1  UNL1        0.0000
     48 H          10.9731    5.9911   15.9302 H       1  UNL1        0.0000
     49 H          11.3950    4.3097   16.1836 H       1  UNL1        0.0000
     50 C           9.3643    4.7787   16.6803 C.3     1  UNL1        0.0000
     51 H           9.2138    3.8610   17.2424 H       1  UNL1        0.0000
     52 H           8.9783    4.6242   15.6744 H       1  UNL1        0.0000
     53 H           8.7782    5.5666   17.1477 H       1  UNL1        0.0000
     54 C          15.2585    2.9062   15.2107 C.3     1  UNL1        0.0000
     55 H          15.2550    2.0794   15.9168 H       1  UNL1        0.0000
     56 H          15.3918    2.4950   14.2115 H       1  UNL1        0.0000
     57 H          14.2968    3.4088   15.2399 H       1  UNL1        0.0000
     58 C          16.3813    3.8944   15.5004 C.3     1  UNL1        0.0000
     59 H          16.3043    4.7027   14.7714 H       1  UNL1        0.0000
     60 H          17.3423    3.3996   15.3415 H       1  UNL1        0.0000
     61 C          16.4845    3.4637   18.0213 C.3     1  UNL1        0.0000
     62 H          16.4888    3.9882   18.9810 H       1  UNL1        0.0000
     63 H          15.5923    2.8372   18.0053 H       1  UNL1        0.0000
     64 C          17.7142    2.5653   17.9377 C.3     1  UNL1        0.0000
     65 H          17.6752    1.9293   17.0574 H       1  UNL1        0.0000
     66 H          17.7632    1.9226   18.8150 H       1  UNL1        0.0000
     67 H          18.6275    3.1538   17.8962 H       1  UNL1        0.0000
     68 C          17.1848    7.4969   19.3737 C.3     1  UNL1        0.0000
     69 H          16.1086    7.3933   19.4861 H       1  UNL1        0.0000
     70 H          17.5333    8.2657   20.0604 H       1  UNL1        0.0000
     71 H          17.6434    6.5556   19.6699 H       1  UNL1        0.0000
     72 C          17.5449    7.8857   17.9423 C.3     1  UNL1        0.0000
     73 H          17.1800    8.8902   17.7547 H       1  UNL1        0.0000
     74 H          18.6329    7.8884   17.8457 H       1  UNL1        0.0000
     75 C          17.2263    7.4704   15.4431 C.3     1  UNL1        0.0000
     76 H          16.9206    6.6828   14.7526 H       1  UNL1        0.0000
     77 H          16.5877    8.3314   15.2565 H       1  UNL1        0.0000
     78 C          18.6699    7.8530   15.1345 C.3     1  UNL1        0.0000
     79 H          18.9514    8.7713   15.6417 H       1  UNL1        0.0000
     80 H          18.7790    8.0196   14.0644 H       1  UNL1        0.0000
     81 H          19.3642    7.0689   15.4285 H       1  UNL1        0.0000
     82 C          17.1829   11.2016   14.6469 C.ar    1  UNL1        0.0000
     83 C          16.6344   10.3804   13.6675 C.ar    1  UNL1        0.0000
     84 H          15.6373    9.9009   13.8320 H       1  UNL1        0.0000
     85 C          17.3100   10.1485   12.4803 C.ar    1  UNL1        0.0000
     86 H          16.8871    9.4805   11.7406 H       1  UNL1        0.0000
     87 C          18.5384   10.7448   12.2263 C.ar    1  UNL1        0.0000
     88 C          19.0711   11.5874   13.1933 C.ar    1  UNL1        0.0000
     89 H          20.0220   12.0691   13.0165 H       1  UNL1        0.0000
     90 C          18.4065   11.8089   14.3840 C.ar    1  UNL1        0.0000
     91 H          18.8431   12.4629   15.1240 H       1  UNL1        0.0000
     92 C          19.2596   10.4989   10.9363 C.3     1  UNL1        0.0000
     93 H          19.1069   11.3354   10.2533 H       1  UNL1        0.0000
     94 H          18.8966    9.5938   10.4556 H       1  UNL1        0.0000
     95 H          20.3292   10.4018   11.1077 H       1  UNL1        0.0000
     96 C          17.3364   12.0567   17.0230 C.ar    1  UNL1        0.0000
     97 C          18.4210   11.3295   17.5008 C.ar    1  UNL1        0.0000
     98 H          18.6326   10.3635   17.0731 H       1  UNL1        0.0000
     99 C          19.2220   11.8267   18.5075 C.ar    1  UNL1        0.0000
    100 H          20.0539   11.2380   18.8678 H       1  UNL1        0.0000
    101 C          18.9738   13.0757   19.0645 C.ar    1  UNL1        0.0000
    102 C          17.9095   13.8110   18.5677 C.ar    1  UNL1        0.0000
    103 H          17.6988   14.7899   18.9746 H       1  UNL1        0.0000
    104 C          17.0995   13.3120   17.5621 C.ar    1  UNL1        0.0000
    105 H          16.2780   13.9151   17.2078 H       1  UNL1        0.0000
    106 C          19.8385   13.5979   20.1712 C.3     1  UNL1        0.0000
    107 H          19.5915   14.6306   20.4053 H       1  UNL1        0.0000
    108 H          20.8905   13.5438   19.8945 H       1  UNL1        0.0000
    109 H          19.6998   12.9967   21.0692 H       1  UNL1        0.0000
    110 C          15.4056   13.3571   14.7641 C.ar    1  UNL1        0.0000
    111 H          16.3464   13.4627   14.2411 H       1  UNL1        0.0000
    112 C          14.3904   14.2640   14.4978 C.ar    1  UNL1        0.0000
    113 C          13.1846   14.1192   15.1722 C.ar    1  UNL1        0.0000
    114 H          12.3727   14.8058   14.9759 H       1  UNL1        0.0000
    115 C          13.0260   13.1069   16.0967 C.ar    1  UNL1        0.0000
    116 H          12.0821   13.0062   16.6157 H       1  UNL1        0.0000
    117 C          14.5887   15.3791   13.5143 C.3     1  UNL1        0.0000
    118 H          15.4762   15.2105   12.9080 H       1  UNL1        0.0000
    119 H          14.7102   16.3259   14.0418 H       1  UNL1        0.0000
    120 H          13.7251   15.4748   12.8570 H       1  UNL1        0.0000
    121 C          14.5597   11.5901   18.7084 C.ar    1  UNL1        0.0000
    122 C          15.3776   10.7381   19.4320 C.ar    1  UNL1        0.0000
    123 H          15.5132    9.7219   19.1025 H       1  UNL1        0.0000
    124 C          16.0267   11.1746   20.5735 C.ar    1  UNL1        0.0000
    125 H          16.6671   10.4903   21.1125 H       1  UNL1        0.0000
    126 C          15.8698   12.4716   21.0347 C.ar    1  UNL1        0.0000
    127 C          15.0259   13.3192   20.3272 C.ar    1  UNL1        0.0000
    128 H          14.8758   14.3322   20.6750 H       1  UNL1        0.0000
    129 C          14.3835   12.8866   19.1851 C.ar    1  UNL1        0.0000
    130 H          13.7379   13.5699   18.6503 H       1  UNL1        0.0000
    131 C          16.5722   12.9568   22.2671 C.3     1  UNL1        0.0000
    132 H          17.1277   13.8688   22.0542 H       1  UNL1        0.0000
    133 H          17.2632   12.2052   22.6412 H       1  UNL1        0.0000
    134 H          15.8502   13.1822   23.0523 H       1  UNL1        0.0000
@<TRIPOS>BOND
     1    93    92    1
     2    94    92    1
     3    92    95    1
     4    92    87    1
     5    86    85    1
     6    87    85   ar
     7    87    88   ar
     8    85    83   ar
     9   120   117    1
    10   118   117    1
    11    89    88    1
    12    88    90   ar
    13   117   119    1
    14   117   112    1
    15    83    84    1
    16    83    82   ar
    17    80    78    1
    18    56    54    1
    19   111   110    1
    20    90    82   ar
    21    90    91    1
    22   112   110   ar
    23   112   113   ar
    24    82     5    1
    25    76    75    1
    26   110     6   ar
    27    59    58    1
    28   114   113    1
    29    78    81    1
    30    78    75    1
    31    78    79    1
    32   113   115   ar
    33     1     2    1
    34    54    57    1
    35    54    58    1
    36    54    55    1
    37    77    75    1
    38    60    58    1
    39    75    25    1
    40    58    21    1
    41    52    50    1
    42     6     5    1
    43     6     7   ar
    44    48    47    1
    45     5     4    1
    46     5    96    1
    47   115     7   ar
    48   115   116    1
    49    49    47    1
    50    23    22    1
    51    32    30    1
    52     7     8    1
    53     4     2    1
    54    31    30    1
    55    28    26    1
    56     2     3    1
    57     2     8    1
    58    47    50    1
    59    47    20    1
    60    50    53    1
    61    50    51    1
    62    25    22    1
    63    25    15    1
    64    25    72    1
    65    21    22    1
    66    21    14    1
    67    21    61    1
    68    30    26    1
    69    30    16    1
    70    22    24    1
    71    96    97   ar
    72    96   104   ar
    73    65    64    1
    74    15    14   ar
    75    15     3   ar
    76    98    97    1
    77    14    12   ar
    78   105   104    1
    79     3    10   ar
    80    12    13    1
    81    12    11   ar
    82    26    27    1
    83    26    29    1
    84     8     9    1
    85     8   121    1
    86    97    99   ar
    87   104   102   ar
    88    10    11   ar
    89    10    16    1
    90    11    20    1
    91    73    72    1
    92    74    72    1
    93    67    64    1
    94    64    61    1
    95    64    66    1
    96    72    68    1
    97    20    17    1
    98    20    44    1
    99    63    61    1
   100    61    62    1
   101    16    17    1
   102    16    33    1
   103    19    17    1
   104    46    44    1
   105    99   100    1
   106    99   101   ar
   107    17    18    1
   108   102   103    1
   109   102   101   ar
   110   130   129    1
   111   121   129   ar
   112   121   122   ar
   113    44    45    1
   114    44    40    1
   115    34    33    1
   116   101   106    1
   117   123   122    1
   118   129   127   ar
   119    33    35    1
   120    33    36    1
   121    68    69    1
   122    68    71    1
   123    68    70    1
   124   122   124   ar
   125   108   106    1
   126    41    40    1
   127    39    36    1
   128   106   107    1
   129   106   109    1
   130    40    42    1
   131    40    43    1
   132   127   128    1
   133   127   126   ar
   134    36    37    1
   135    36    38    1
   136   124   126   ar
   137   124   125    1
   138   126   131    1
   139   132   131    1
   140   131   133    1
   141   131   134    1
