@<TRIPOS>MOLECULE
1
 3 2 0 0 0
SMALL
GASTEIGER

@<TRIPOS>ATOM
      1 O           6.1883    8.8139   12.6832 O.3     1  UNL1       -0.1279
      2 C           6.2070   10.0192   12.4126 C.1     1  UNL1        0.1075
      3 C           6.2071   11.2650   12.1995 C.1     1  UNL1        0.0205
@<TRIPOS>BOND
     1     3     2    3
     2     2     1    1
