@<TRIPOS>MOLECULE
1
 36 36 0 0 0
SMALL
GASTEIGER

@<TRIPOS>ATOM
      1 O          14.2224    5.6592    6.5935 O.3     1  UNL1       -0.2873
      2 C          14.6088    4.4884    7.0753 C.ar    1  UNL1        0.1863
      3 C          13.7213    3.3678    7.1016 C.ar    1  UNL1        0.0049
      4 C          14.1886    2.1480    7.5616 C.ar    1  UNL1       -0.0544
      5 H          13.5402    1.2884    7.5731 H       1  UNL1        0.0622
      6 C          15.4817    1.9812    8.0134 C.ar    1  UNL1       -0.0610
      7 H          15.8196    1.0144    8.3576 H       1  UNL1        0.0618
      8 C          16.3317    3.0678    8.0374 C.ar    1  UNL1       -0.0544
      9 H          17.3298    2.9182    8.4141 H       1  UNL1        0.0622
     10 C          15.9287    4.3155    7.5938 C.ar    1  UNL1        0.0049
     11 C          12.2799    3.4659    6.6004 C.3     1  UNL1       -0.0090
     12 C          11.5562    4.6323    7.2818 C.3     1  UNL1       -0.0559
     13 H          10.5296    4.6999    6.9253 H       1  UNL1        0.0238
     14 H          12.0640    5.5664    7.0637 H       1  UNL1        0.0238
     15 H          11.5425    4.4840    8.3599 H       1  UNL1        0.0238
     16 C          12.3028    3.6733    5.0812 C.3     1  UNL1       -0.0559
     17 H          11.2909    3.7447    4.6849 H       1  UNL1        0.0238
     18 H          12.8064    2.8402    4.5917 H       1  UNL1        0.0238
     19 H          12.8359    4.5933    4.8457 H       1  UNL1        0.0238
     20 C          11.4506    2.2045    6.8786 C.3     1  UNL1       -0.0559
     21 H          11.4330    1.9704    7.9404 H       1  UNL1        0.0238
     22 H          11.8259    1.3457    6.3268 H       1  UNL1        0.0238
     23 H          10.4257    2.3803    6.5559 H       1  UNL1        0.0238
     24 C          16.8978    5.4943    7.6817 C.3     1  UNL1       -0.0090
     25 C          17.2296    6.0166    6.2756 C.3     1  UNL1       -0.0559
     26 H          17.6126    5.2021    5.6596 H       1  UNL1        0.0238
     27 H          17.9861    6.7972    6.3307 H       1  UNL1        0.0238
     28 H          16.3348    6.4371    5.7937 H       1  UNL1        0.0238
     29 C          16.2575    6.5915    8.5404 C.3     1  UNL1       -0.0559
     30 H          15.3521    6.9734    8.0712 H       1  UNL1        0.0238
     31 H          16.9421    7.4234    8.6877 H       1  UNL1        0.0238
     32 H          15.9931    6.1882    9.5163 H       1  UNL1        0.0238
     33 C          18.2354    5.1282    8.3412 C.3     1  UNL1       -0.0559
     34 H          18.0873    4.7523    9.3503 H       1  UNL1        0.0238
     35 H          18.8563    6.0204    8.4071 H       1  UNL1        0.0238
     36 H          18.7787    4.3886    7.7572 H       1  UNL1        0.0238
@<TRIPOS>BOND
     1    18    16    1
     2    17    16    1
     3    19    16    1
     4    16    11    1
     5    26    25    1
     6    28    25    1
     7    25    27    1
     8    25    24    1
     9    22    20    1
    10    23    20    1
    11     1     2    1
    12    11    20    1
    13    11     3    1
    14    11    12    1
    15    20    21    1
    16    13    12    1
    17    14    12    1
    18     2     3   ar
    19     2    10   ar
    20     3     4   ar
    21    12    15    1
    22     4     5    1
    23     4     6   ar
    24    10    24    1
    25    10     8   ar
    26    24    33    1
    27    24    29    1
    28    36    33    1
    29     6     8   ar
    30     6     7    1
    31     8     9    1
    32    30    29    1
    33    33    35    1
    34    33    34    1
    35    29    31    1
    36    29    32    1
