@<TRIPOS>MOLECULE
1
 14 13 0 0 0
SMALL
GASTEIGER

@<TRIPOS>ATOM
      1 O          13.3063    6.0227   11.8651 O.3     1  UNL1       -0.2285
      2 C          12.5173    6.8390   11.0472 C.3     1  UNL1        0.0962
      3 C          13.1532    8.2372   10.9626 C.3     1  UNL1       -0.0333
      4 H          13.0617    8.7293   11.9316 H       1  UNL1        0.0258
      5 H          12.6575    8.8386   10.2012 H       1  UNL1        0.0258
      6 H          14.2101    8.1283   10.7177 H       1  UNL1        0.0258
      7 C          11.1062    6.9482   11.6538 C.3     1  UNL1       -0.0333
      8 H          10.6472    5.9607   11.6888 H       1  UNL1        0.0258
      9 H          10.4842    7.6088   11.0530 H       1  UNL1        0.0258
     10 H          11.1872    7.3469   12.6674 H       1  UNL1        0.0258
     11 C          12.4411    6.2242    9.6374 C.3     1  UNL1       -0.0333
     12 H          13.4329    6.2125    9.1925 H       1  UNL1        0.0258
     13 H          11.7752    6.8079    9.0067 H       1  UNL1        0.0258
     14 H          12.0669    5.2043    9.6963 H       1  UNL1        0.0258
@<TRIPOS>BOND
     1    13    11    1
     2    12    11    1
     3    11    14    1
     4    11     2    1
     5     5     3    1
     6     6     3    1
     7     3     2    1
     8     3     4    1
     9     2     7    1
    10     2     1    1
    11     9     7    1
    12     7     8    1
    13     7    10    1
