@<TRIPOS>MOLECULE
2
 44 43 0 0 0
SMALL
GASTEIGER

@<TRIPOS>ATOM
      1 SI         13.4506    3.5087   14.7932 Si      1  UNL1        0.0000
      2 O          13.9637    4.9919   14.4088 O.3     1  UNL1        0.0000
      3 O          11.8424    3.3589   15.0178 O.3     1  UNL1        0.0000
      4 O          13.8261    2.4542   13.6068 O.3     1  UNL1        0.0000
      5 O          14.1337    2.9788   16.1778 O.3     1  UNL1        0.0000
      6 C          10.9093    4.1241   15.7584 C.3     1  UNL1        0.0000
      7 C          11.3959    4.3101   17.1943 C.3     1  UNL1        0.0000
      8 H          11.5889    3.3369   17.6376 H       1  UNL1        0.0000
      9 H          10.6522    4.8385   17.7851 H       1  UNL1        0.0000
     10 H          12.3239    4.8704   17.1887 H       1  UNL1        0.0000
     11 C          10.7072    5.4759   15.0671 C.3     1  UNL1        0.0000
     12 H          11.6772    5.9286   14.8409 H       1  UNL1        0.0000
     13 H          10.1392    6.1527   15.6980 H       1  UNL1        0.0000
     14 H          10.1719    5.3344   14.1306 H       1  UNL1        0.0000
     15 C           9.5981    3.3264   15.7545 C.3     1  UNL1        0.0000
     16 H           9.2820    3.1331   14.7325 H       1  UNL1        0.0000
     17 H           8.8183    3.8829   16.2671 H       1  UNL1        0.0000
     18 H           9.7438    2.3726   16.2545 H       1  UNL1        0.0000
     19 C          13.0026    1.8583   12.6164 C.3     1  UNL1        0.0000
     20 C          12.1126    2.9133   11.9575 C.3     1  UNL1        0.0000
     21 H          11.3152    3.1874   12.6415 H       1  UNL1        0.0000
     22 H          11.6841    2.5295   11.0341 H       1  UNL1        0.0000
     23 H          12.7054    3.8061   11.7547 H       1  UNL1        0.0000
     24 C          12.1476    0.7677   13.2668 C.3     1  UNL1        0.0000
     25 H          12.7879   -0.0052   13.6830 H       1  UNL1        0.0000
     26 H          11.4764    0.3236   12.5362 H       1  UNL1        0.0000
     27 H          11.5733    1.2113   14.0730 H       1  UNL1        0.0000
     28 C          13.9439    1.2376   11.5784 C.3     1  UNL1        0.0000
     29 H          14.4777    2.0198   11.0492 H       1  UNL1        0.0000
     30 H          13.3773    0.6451   10.8645 H       1  UNL1        0.0000
     31 H          14.6644    0.5954   12.0777 H       1  UNL1        0.0000
     32 C          15.4593    3.1259   16.6497 C.3     1  UNL1        0.0000
     33 C          15.6013    2.1816   17.8483 C.3     1  UNL1        0.0000
     34 H          14.8540    2.4242   18.5986 H       1  UNL1        0.0000
     35 H          16.5914    2.2720   18.2870 H       1  UNL1        0.0000
     36 H          15.4438    1.1562   17.5268 H       1  UNL1        0.0000
     37 C          16.4551    2.7536   15.5534 C.3     1  UNL1        0.0000
     38 H          16.2248    1.7606   15.1788 H       1  UNL1        0.0000
     39 H          17.4729    2.7728   15.9352 H       1  UNL1        0.0000
     40 H          16.3514    3.4589   14.7341 H       1  UNL1        0.0000
     41 C          15.6796    4.5794   17.0792 C.3     1  UNL1        0.0000
     42 H          15.4234    5.2281   16.2411 H       1  UNL1        0.0000
     43 H          16.7154    4.7405   17.3665 H       1  UNL1        0.0000
     44 H          15.0327    4.8174   17.9201 H       1  UNL1        0.0000
@<TRIPOS>BOND
     1    30    28    1
     2    22    20    1
     3    29    28    1
     4    28    31    1
     5    28    19    1
     6    23    20    1
     7    20    19    1
     8    20    21    1
     9    26    24    1
    10    19    24    1
    11    19     4    1
    12    24    25    1
    13    24    27    1
    14     4     1    1
    15    14    11    1
    16     2     1    1
    17    16    15    1
    18    40    37    1
    19     1     3    1
    20     1     5    1
    21    12    11    1
    22     3     6    1
    23    11    13    1
    24    11     6    1
    25    38    37    1
    26    37    39    1
    27    37    32    1
    28    15     6    1
    29    15    18    1
    30    15    17    1
    31     6     7    1
    32     5    32    1
    33    42    41    1
    34    32    41    1
    35    32    33    1
    36    41    43    1
    37    41    44    1
    38    10     7    1
    39     7     8    1
    40     7     9    1
    41    36    33    1
    42    33    35    1
    43    33    34    1
