@<TRIPOS>MOLECULE
2
 44 43 0 0 0
SMALL
GASTEIGER

@<TRIPOS>ATOM
      1 SI         12.6030    9.1078   14.7770 Si      1  UNL1        0.0000
      2 O          13.1707    7.7340   14.1805 O.3     1  UNL1        0.0000
      3 O          12.7152   10.3750   13.7562 O.3     1  UNL1        0.0000
      4 O          13.3717    9.5491   16.1607 O.3     1  UNL1        0.0000
      5 O          11.0152    8.8126   14.9830 O.3     1  UNL1        0.0000
      6 C          13.7465   11.3221   13.5129 C.3     1  UNL1        0.0000
      7 C          15.1266   10.6768   13.6142 C.3     1  UNL1        0.0000
      8 H          15.3238   10.4224   14.6501 H       1  UNL1        0.0000
      9 H          15.8901   11.3673   13.2651 H       1  UNL1        0.0000
     10 H          15.1687    9.7657   13.0180 H       1  UNL1        0.0000
     11 C          13.5143   11.8687   12.1002 C.3     1  UNL1        0.0000
     12 H          13.6708   11.0802   11.3702 H       1  UNL1        0.0000
     13 H          14.1999   12.6876   11.8986 H       1  UNL1        0.0000
     14 H          12.4935   12.2313   12.0066 H       1  UNL1        0.0000
     15 C          13.6190   12.4469   14.5462 C.3     1  UNL1        0.0000
     16 H          12.6634   12.9538   14.4335 H       1  UNL1        0.0000
     17 H          14.4203   13.1702   14.4209 H       1  UNL1        0.0000
     18 H          13.6708   12.0163   15.5422 H       1  UNL1        0.0000
     19 C          14.0390    8.7330   17.1090 C.3     1  UNL1        0.0000
     20 C          15.4140    8.3330   16.5614 C.3     1  UNL1        0.0000
     21 H          15.2814    7.8604   15.5817 H       1  UNL1        0.0000
     22 H          15.8990    7.6357   17.2399 H       1  UNL1        0.0000
     23 H          16.0475    9.2106   16.4511 H       1  UNL1        0.0000
     24 C          14.1902    9.5808   18.3776 C.3     1  UNL1        0.0000
     25 H          14.7139   10.5045   18.1455 H       1  UNL1        0.0000
     26 H          14.7499    9.0353   19.1323 H       1  UNL1        0.0000
     27 H          13.2102    9.8333   18.7736 H       1  UNL1        0.0000
     28 C          13.2250    7.4729   17.3970 C.3     1  UNL1        0.0000
     29 H          12.1970    7.7434   17.6232 H       1  UNL1        0.0000
     30 H          13.6481    6.9318   18.2397 H       1  UNL1        0.0000
     31 H          13.2323    6.8417   16.5077 H       1  UNL1        0.0000
     32 C           9.9272    9.6950   15.2039 C.3     1  UNL1        0.0000
     33 C          10.2953   10.7565   16.2391 C.3     1  UNL1        0.0000
     34 H          10.6175   10.2766   17.1590 H       1  UNL1        0.0000
     35 H           9.4423   11.3969   16.4484 H       1  UNL1        0.0000
     36 H          11.1172   11.3556   15.8629 H       1  UNL1        0.0000
     37 C           8.7651    8.8376   15.7168 C.3     1  UNL1        0.0000
     38 H           8.5408    8.0554   14.9970 H       1  UNL1        0.0000
     39 H           7.8806    9.4519   15.8629 H       1  UNL1        0.0000
     40 H           9.0334    8.3739   16.6625 H       1  UNL1        0.0000
     41 C           9.5504   10.3585   13.8777 C.3     1  UNL1        0.0000
     42 H          10.4219   10.8726   13.4861 H       1  UNL1        0.0000
     43 H           8.7373   11.0653   14.0204 H       1  UNL1        0.0000
     44 H           9.2469    9.6004   13.1610 H       1  UNL1        0.0000
@<TRIPOS>BOND
     1    12    11    1
     2    13    11    1
     3    14    11    1
     4    11     6    1
     5    10     7    1
     6    44    41    1
     7     9     7    1
     8    42    41    1
     9     6     7    1
    10     6     3    1
    11     6    15    1
    12     7     8    1
    13     3     1    1
    14    41    43    1
    15    41    32    1
    16     2     1    1
    17    17    15    1
    18    16    15    1
    19    15    18    1
    20     1     5    1
    21     1     4    1
    22     5    32    1
    23    38    37    1
    24    32    37    1
    25    32    33    1
    26    21    20    1
    27    37    39    1
    28    37    40    1
    29    36    33    1
    30     4    19    1
    31    33    35    1
    32    33    34    1
    33    23    20    1
    34    31    28    1
    35    20    19    1
    36    20    22    1
    37    19    28    1
    38    19    24    1
    39    28    29    1
    40    28    30    1
    41    25    24    1
    42    24    27    1
    43    24    26    1
