@<TRIPOS>MOLECULE
2
 44 43 0 0 0
SMALL
GASTEIGER

@<TRIPOS>ATOM
      1 SI         16.7603    7.1868   11.9690 Si      1  UNL1        0.0000
      2 O          15.6671    7.0614   13.1330 O.3     1  UNL1        0.0000
      3 O          16.5204    6.1549   10.7257 O.3     1  UNL1        0.0000
      4 O          18.2757    6.8882   12.5329 O.3     1  UNL1        0.0000
      5 O          16.5946    8.6764   11.3292 O.3     1  UNL1        0.0000
      6 C          16.6986    4.7483   10.6873 C.3     1  UNL1        0.0000
      7 C          15.7188    4.2150    9.6386 C.3     1  UNL1        0.0000
      8 H          14.7028    4.3806    9.9880 H       1  UNL1        0.0000
      9 H          15.8819    3.1534    9.4708 H       1  UNL1        0.0000
     10 H          15.8589    4.7436    8.6983 H       1  UNL1        0.0000
     11 C          16.4009    4.1308   12.0529 C.3     1  UNL1        0.0000
     12 H          17.1606    4.4568   12.7588 H       1  UNL1        0.0000
     13 H          16.4086    3.0452   11.9984 H       1  UNL1        0.0000
     14 H          15.4188    4.4727   12.4062 H       1  UNL1        0.0000
     15 C          18.1469    4.4565   10.2789 C.3     1  UNL1        0.0000
     16 H          18.3386    4.8424    9.2805 H       1  UNL1        0.0000
     17 H          18.3376    3.3867   10.2893 H       1  UNL1        0.0000
     18 H          18.8157    4.9532   10.9761 H       1  UNL1        0.0000
     19 C          18.8255    7.1909   13.8053 C.3     1  UNL1        0.0000
     20 C          18.2438    6.2313   14.8489 C.3     1  UNL1        0.0000
     21 H          17.1559    6.2671   14.7899 H       1  UNL1        0.0000
     22 H          18.5640    6.5167   15.8474 H       1  UNL1        0.0000
     23 H          18.5740    5.2141   14.6504 H       1  UNL1        0.0000
     24 C          20.3404    6.9926   13.6812 C.3     1  UNL1        0.0000
     25 H          20.5571    5.9748   13.3678 H       1  UNL1        0.0000
     26 H          20.8239    7.1806   14.6359 H       1  UNL1        0.0000
     27 H          20.7449    7.6729   12.9366 H       1  UNL1        0.0000
     28 C          18.5069    8.6342   14.1952 C.3     1  UNL1        0.0000
     29 H          18.8971    9.3153   13.4436 H       1  UNL1        0.0000
     30 H          18.9489    8.8752   15.1586 H       1  UNL1        0.0000
     31 H          17.4292    8.7583   14.2421 H       1  UNL1        0.0000
     32 C          17.2131    9.2491   10.1859 C.3     1  UNL1        0.0000
     33 C          18.6737    8.8164   10.0740 C.3     1  UNL1        0.0000
     34 H          19.2044    9.0697   10.9867 H       1  UNL1        0.0000
     35 H          19.1513    9.3117    9.2324 H       1  UNL1        0.0000
     36 H          18.7239    7.7409    9.9411 H       1  UNL1        0.0000
     37 C          17.1259   10.7690   10.3588 C.3     1  UNL1        0.0000
     38 H          16.0899   11.0642   10.4947 H       1  UNL1        0.0000
     39 H          17.5298   11.2708    9.4835 H       1  UNL1        0.0000
     40 H          17.6895   11.0746   11.2361 H       1  UNL1        0.0000
     41 C          16.4503    8.8114    8.9323 C.3     1  UNL1        0.0000
     42 H          16.3999    7.7271    8.9182 H       1  UNL1        0.0000
     43 H          16.9561    9.1654    8.0377 H       1  UNL1        0.0000
     44 H          15.4394    9.2096    8.9485 H       1  UNL1        0.0000
@<TRIPOS>BOND
     1    43    41    1
     2    10     7    1
     3    42    41    1
     4    41    44    1
     5    41    32    1
     6    35    33    1
     7    16    15    1
     8     9     7    1
     9    39    37    1
    10     7     8    1
    11     7     6    1
    12    36    33    1
    13    33    32    1
    14    33    34    1
    15    32    37    1
    16    32     5    1
    17    15    17    1
    18    15     6    1
    19    15    18    1
    20    37    38    1
    21    37    40    1
    22     6     3    1
    23     6    11    1
    24     3     1    1
    25     5     1    1
    26     1     4    1
    27     1     2    1
    28    13    11    1
    29    11    14    1
    30    11    12    1
    31     4    19    1
    32    27    24    1
    33    25    24    1
    34    29    28    1
    35    24    19    1
    36    24    26    1
    37    19    28    1
    38    19    20    1
    39    28    31    1
    40    28    30    1
    41    23    20    1
    42    21    20    1
    43    20    22    1
