@<TRIPOS>MOLECULE
1
 13 13 0 0 0
SMALL
GASTEIGER

@<TRIPOS>ATOM
      1 O           7.2362    6.0036    5.4045 O.3     1  UNL1       -0.3798
      2 C           8.0079    4.8865    5.8377 C.3     1  UNL1        0.0477
      3 H           7.5343    3.9837    5.4501 H       1  UNL1        0.0560
      4 H           8.0096    4.8483    6.9367 H       1  UNL1        0.0560
      5 C           9.4422    5.0999    5.3146 C.3     1  UNL1       -0.0274
      6 H          10.1654    4.9689    6.1182 H       1  UNL1        0.0288
      7 H           9.6827    4.3973    4.5202 H       1  UNL1        0.0288
      8 C           9.4276    6.5471    4.8013 C.3     1  UNL1       -0.0274
      9 H          10.3068    7.1109    5.1026 H       1  UNL1        0.0288
     10 H           9.3511    6.5693    3.7149 H       1  UNL1        0.0288
     11 C           8.1485    7.1041    5.4223 C.3     1  UNL1        0.0477
     12 H           8.3293    7.4150    6.4613 H       1  UNL1        0.0560
     13 H           7.6973    7.9320    4.8768 H       1  UNL1        0.0560
@<TRIPOS>BOND
     1    10     8    1
     2     7     5    1
     3     8     9    1
     4     8     5    1
     5     8    11    1
     6    13    11    1
     7     5     2    1
     8     5     6    1
     9     1    11    1
    10     1     2    1
    11    11    12    1
    12     3     2    1
    13     2     4    1
