@<TRIPOS>MOLECULE
1
 13 13 0 0 0
SMALL
GASTEIGER

@<TRIPOS>ATOM
      1 O           4.3051   -0.0665   -0.6829 O.3     1  UNL1       -0.3798
      2 C           5.1604    0.6904   -1.5324 C.3     1  UNL1        0.0477
      3 C           6.5100   -0.0127   -1.4642 C.3     1  UNL1       -0.0274
      4 C           6.0679   -1.4740   -1.4573 C.3     1  UNL1       -0.0274
      5 C           4.7797   -1.4156   -0.6303 C.3     1  UNL1        0.0477
      6 H           5.1803    1.7202   -1.1736 H       1  UNL1        0.0560
      7 H           4.7584    0.6690   -2.5566 H       1  UNL1        0.0560
      8 H           7.0076    0.2343   -0.5252 H       1  UNL1        0.0288
      9 H           7.1599    0.2394   -2.2986 H       1  UNL1        0.0288
     10 H           6.8031   -2.1398   -1.0126 H       1  UNL1        0.0288
     11 H           5.8583   -1.8089   -2.4740 H       1  UNL1        0.0288
     12 H           3.9985   -2.0797   -1.0161 H       1  UNL1        0.0560
     13 H           4.9710   -1.6600    0.4199 H       1  UNL1        0.0560
@<TRIPOS>BOND
     1     7     2    1
     2    11     4    1
     3     9     3    1
     4     2     3    1
     5     2     6    1
     6     2     1    1
     7     3     4    1
     8     3     8    1
     9     4    10    1
    10     4     5    1
    11    12     5    1
    12     1     5    1
    13     5    13    1
