@<TRIPOS>MOLECULE
1
 13 13 0 0 0
SMALL
GASTEIGER

@<TRIPOS>ATOM
      1 O           5.3607    2.9165    0.8900 O.3     1  UNL1       -0.3798
      2 C           5.0163    4.2791    0.6789 C.3     1  UNL1        0.0477
      3 C           6.3521    5.0133    0.5001 C.3     1  UNL1       -0.0274
      4 C           7.3599    4.1081    1.2300 C.3     1  UNL1       -0.0274
      5 C           6.4946    2.9490    1.7434 C.3     1  UNL1        0.0477
      6 H           4.4761    4.6609    1.5568 H       1  UNL1        0.0560
      7 H           4.3646    4.3290   -0.1954 H       1  UNL1        0.0560
      8 H           6.3080    6.0126    0.9270 H       1  UNL1        0.0288
      9 H           6.6037    5.1016   -0.5562 H       1  UNL1        0.0288
     10 H           7.8559    4.6185    2.0524 H       1  UNL1        0.0288
     11 H           8.1220    3.7425    0.5426 H       1  UNL1        0.0288
     12 H           6.9874    1.9769    1.6888 H       1  UNL1        0.0560
     13 H           6.1698    3.1321    2.7785 H       1  UNL1        0.0560
@<TRIPOS>BOND
     1     9     3    1
     2     7     2    1
     3     3     2    1
     4     3     8    1
     5     3     4    1
     6    11     4    1
     7     2     1    1
     8     2     6    1
     9     1     5    1
    10     4     5    1
    11     4    10    1
    12    12     5    1
    13     5    13    1
