@<TRIPOS>MOLECULE
1
 13 13 0 0 0
SMALL
GASTEIGER

@<TRIPOS>ATOM
      1 O           0.4326   15.5420    3.5515 O.3     1  UNL1       -0.3798
      2 C          -0.9581   15.4943    3.2220 C.3     1  UNL1        0.0477
      3 H          -1.4679   16.3401    3.7016 H       1  UNL1        0.0560
      4 H          -1.3611   14.5576    3.6098 H       1  UNL1        0.0560
      5 C          -1.0605   15.5941    1.6892 C.3     1  UNL1       -0.0274
      6 H          -1.3802   14.6479    1.2588 H       1  UNL1        0.0288
      7 H          -1.7731   16.3648    1.4013 H       1  UNL1        0.0288
      8 C           0.3654   15.9516    1.2495 C.3     1  UNL1       -0.0274
      9 H           0.3918   16.7376    0.4991 H       1  UNL1        0.0288
     10 H           0.8717   15.0709    0.8586 H       1  UNL1        0.0288
     11 C           1.0198   16.3842    2.5599 C.3     1  UNL1        0.0477
     12 H           2.1003   16.2430    2.5854 H       1  UNL1        0.0560
     13 H           0.7799   17.4333    2.7833 H       1  UNL1        0.0560
@<TRIPOS>BOND
     1     9     8    1
     2    10     8    1
     3     8     5    1
     4     8    11    1
     5     6     5    1
     6     7     5    1
     7     5     2    1
     8    11    12    1
     9    11    13    1
    10    11     1    1
    11     2     1    1
    12     2     4    1
    13     2     3    1
