@<TRIPOS>MOLECULE
1
 13 13 0 0 0
SMALL
GASTEIGER

@<TRIPOS>ATOM
      1 O           3.2445    6.0281   13.8398 O.3     1  UNL1       -0.3798
      2 C           4.2222    5.9099   14.8977 C.3     1  UNL1        0.0477
      3 H           4.3371    6.8860   15.3725 H       1  UNL1        0.0560
      4 H           5.1800    5.5992   14.4585 H       1  UNL1        0.0560
      5 C           2.4414    4.8300   13.8477 C.3     1  UNL1        0.0477
      6 H           2.4088    4.4184   12.8369 H       1  UNL1        0.0560
      7 H           1.4260    5.1025   14.1663 H       1  UNL1        0.0560
      8 C           3.0831    3.8670   14.8409 C.3     1  UNL1       -0.0274
      9 H           3.8662    3.2928   14.3452 H       1  UNL1        0.0288
     10 H           2.3564    3.1876   15.2797 H       1  UNL1        0.0288
     11 C           3.7005    4.8357   15.8404 C.3     1  UNL1       -0.0274
     12 H           2.9374    5.2478   16.5025 H       1  UNL1        0.0288
     13 H           4.4951    4.3957   16.4370 H       1  UNL1        0.0288
@<TRIPOS>BOND
     1     6     5    1
     2     1     5    1
     3     1     2    1
     4     5     7    1
     5     5     8    1
     6     9     8    1
     7     4     2    1
     8     8    10    1
     9     8    11    1
    10     2     3    1
    11     2    11    1
    12    11    13    1
    13    11    12    1
