@<TRIPOS>MOLECULE
1
 30 29 0 0 0
SMALL
GASTEIGER

@<TRIPOS>ATOM
      1 O          -0.6642   -0.7273    8.5495 O.3     1  UNL1        0.0000
      2 SI         -0.7908   -1.3954   10.0036 Si      1  UNL1        0.0000
      3 C          -2.6011   -2.0545   10.0996 C.3     1  UNL1        0.0000
      4 C          -2.8408   -2.9391   11.3241 C.3     1  UNL1        0.0000
      5 C          -3.6158   -0.9089   10.1010 C.3     1  UNL1        0.0000
      6 C          -2.8297   -2.8865    8.8314 C.3     1  UNL1        0.0000
      7 C          -0.1037   -0.0870   11.2443 C.3     1  UNL1        0.0000
      8 C           0.1409   -0.6790   12.6336 C.3     1  UNL1        0.0000
      9 C          -1.0336    1.1213   11.3704 C.3     1  UNL1        0.0000
     10 C           1.2320    0.4034   10.6715 C.3     1  UNL1        0.0000
     11 O           0.2536   -2.6786    9.9461 O.3     1  UNL1        0.0000
     12 H          -3.8637   -3.3145   11.3238 H       1  UNL1        0.0000
     13 H          -2.1675   -3.7940   11.3241 H       1  UNL1        0.0000
     14 H          -2.6866   -2.3808   12.2446 H       1  UNL1        0.0000
     15 H          -4.6245   -1.2999    9.9690 H       1  UNL1        0.0000
     16 H          -3.5874   -0.3610   11.0389 H       1  UNL1        0.0000
     17 H          -3.4078   -0.2137    9.2871 H       1  UNL1        0.0000
     18 H          -3.8466   -3.2776    8.8126 H       1  UNL1        0.0000
     19 H          -2.6783   -2.2647    7.9454 H       1  UNL1        0.0000
     20 H          -2.1372   -3.7247    8.7871 H       1  UNL1        0.0000
     21 H           0.5508    0.0791   13.3002 H       1  UNL1        0.0000
     22 H          -0.7848   -1.0471   13.0697 H       1  UNL1        0.0000
     23 H           0.8492   -1.5036   12.5851 H       1  UNL1        0.0000
     24 H          -0.5475    1.9117   11.9422 H       1  UNL1        0.0000
     25 H          -1.2834    1.5146   10.3851 H       1  UNL1        0.0000
     26 H          -1.9546    0.8547   11.8818 H       1  UNL1        0.0000
     27 H           1.6662    1.1644   11.3194 H       1  UNL1        0.0000
     28 H           1.9396   -0.4182   10.5827 H       1  UNL1        0.0000
     29 H           1.0754    0.8359    9.6799 H       1  UNL1        0.0000
     30 H           0.3437   -3.2222   10.7242 H       1  UNL1        0.0000
@<TRIPOS>BOND
     1    19     6    1
     2     1     2    1
     3    20     6    1
     4    18     6    1
     5     6     3    1
     6    17     5    1
     7    29    10    1
     8    11     2    1
     9    11    30    1
    10    15     5    1
    11     2     3    1
    12     2     7    1
    13     3     5    1
    14     3     4    1
    15     5    16    1
    16    25     9    1
    17    28    10    1
    18    10     7    1
    19    10    27    1
    20     7     9    1
    21     7     8    1
    22    12     4    1
    23    13     4    1
    24     4    14    1
    25     9    26    1
    26     9    24    1
    27    23     8    1
    28     8    22    1
    29     8    21    1
