@<TRIPOS>MOLECULE
1
 13 13 0 0 0
SMALL
GASTEIGER

@<TRIPOS>ATOM
      1 O           9.5905   12.5803    6.1371 O.3     1  UNL1       -0.3798
      2 C          10.4004   11.4553    6.5030 C.3     1  UNL1        0.0477
      3 H           9.9267   10.5658    6.0897 H       1  UNL1        0.0560
      4 H          11.4079   11.5980    6.0699 H       1  UNL1        0.0560
      5 C          10.4786   11.4547    8.0405 C.3     1  UNL1       -0.0274
      6 H          11.5116   11.3462    8.3654 H       1  UNL1        0.0288
      7 H           9.8958   10.6445    8.4733 H       1  UNL1        0.0288
      8 C           9.9069   12.8228    8.4350 C.3     1  UNL1       -0.0274
      9 H          10.5044   13.3288    9.1892 H       1  UNL1        0.0288
     10 H           8.8858   12.7229    8.8015 H       1  UNL1        0.0288
     11 C           9.9031   13.5747    7.1037 C.3     1  UNL1        0.0477
     12 H           9.1461   14.3572    7.0481 H       1  UNL1        0.0560
     13 H          10.8998   13.9878    6.8949 H       1  UNL1        0.0560
@<TRIPOS>BOND
     1     4     2    1
     2     3     2    1
     3     1     2    1
     4     1    11    1
     5     2     5    1
     6    13    11    1
     7    12    11    1
     8    11     8    1
     9     5     6    1
    10     5     8    1
    11     5     7    1
    12     8    10    1
    13     8     9    1
