@<TRIPOS>MOLECULE
16
 35 37 0 0 0
SMALL
GASTEIGER

@<TRIPOS>ATOM
      1 F           4.5996   10.8674   10.6192 F       1  UNL1        0.0000
      2 F           6.0762    9.4741    8.8740 F       1  UNL1        0.0000
      3 F           6.5373    6.8081    9.2626 F       1  UNL1        0.0000
      4 F           5.4512    5.5597   11.4432 F       1  UNL1        0.0000
      5 F           3.9636    6.9589   13.2000 F       1  UNL1        0.0000
      6 F           5.9576    8.7277   14.2096 F       1  UNL1        0.0000
      7 F           6.4630    8.2741   16.7903 F       1  UNL1        0.0000
      8 F           4.5358    8.6745   18.6829 F       1  UNL1        0.0000
      9 F           2.0675    9.6022   17.9112 F       1  UNL1        0.0000
     10 F           1.5830   10.1114   15.3140 F       1  UNL1        0.0000
     11 F           0.9120   11.5050   13.0214 F       1  UNL1        0.0000
     12 F           0.9649   14.1817   13.0465 F       1  UNL1        0.0000
     13 F           3.3460   15.5230   13.1466 F       1  UNL1        0.0000
     14 F           5.6829   14.1069   13.2480 F       1  UNL1        0.0000
     15 F           5.6341   11.4134   13.2128 F       1  UNL1        0.0000
     16 O           1.9581    9.1806   12.7716 O.3     1  UNL1        0.0000
     17 C           4.2777    8.9791   12.0139 C.ar    1  UNL1        0.0000
     18 C           4.8233    9.5664   10.8827 C.ar    1  UNL1        0.0000
     19 C           5.5846    8.8580    9.9580 C.ar    1  UNL1        0.0000
     20 C           5.8139    7.5019   10.1473 C.ar    1  UNL1        0.0000
     21 C           5.2623    6.8712   11.2565 C.ar    1  UNL1        0.0000
     22 C           4.5015    7.6113   12.1520 C.ar    1  UNL1        0.0000
     23 C           3.7186    9.3798   14.6507 C.ar    1  UNL1        0.0000
     24 C           4.9657    8.9413   15.0819 C.ar    1  UNL1        0.0000
     25 C           5.2514    8.7050   16.4247 C.ar    1  UNL1        0.0000
     26 C           4.2764    8.9124   17.3932 C.ar    1  UNL1        0.0000
     27 C           3.0293    9.3795   17.0008 C.ar    1  UNL1        0.0000
     28 C           2.7893    9.6121   15.6537 C.ar    1  UNL1        0.0000
     29 C           3.2832   11.3540   13.0503 C.ar    1  UNL1        0.0000
     30 C           2.1205   12.1111   13.0427 C.ar    1  UNL1        0.0000
     31 C           2.1221   13.5020   13.0731 C.ar    1  UNL1        0.0000
     32 C           3.3281   14.1859   13.1261 C.ar    1  UNL1        0.0000
     33 C           4.5149   13.4615   13.1696 C.ar    1  UNL1        0.0000
     34 C           4.4716   12.0728   13.1408 C.ar    1  UNL1        0.0000
     35 B           3.2679    9.7060   13.0887 B       1  UNL1        0.0000
@<TRIPOS>BOND
     1     2    19    1
     2     3    20    1
     3    19    20   ar
     4    19    18   ar
     5    20    21   ar
     6     1    18    1
     7    18    17   ar
     8    21     4    1
     9    21    22   ar
    10    17    22   ar
    11    17    35    1
    12    22     5    1
    13    16    35    1
    14    11    30    1
    15    30    29   ar
    16    30    31   ar
    17    12    31    1
    18    29    35    1
    19    29    34   ar
    20    31    32   ar
    21    35    23    1
    22    32    13    1
    23    32    33   ar
    24    34    33   ar
    25    34    15    1
    26    33    14    1
    27     6    24    1
    28    23    24   ar
    29    23    28   ar
    30    24    25   ar
    31    10    28    1
    32    28    27   ar
    33    25     7    1
    34    25    26   ar
    35    27    26   ar
    36    27     9    1
    37    26     8    1
