@<TRIPOS>MOLECULE
2
 35 37 0 0 0
SMALL
GASTEIGER

@<TRIPOS>ATOM
      1 SI         -0.0001    0.0001    3.5712 Si      1  UNL1        0.0000
      2 O          -0.0001    0.0003    1.9772 O.3     1  UNL1        0.0000
      3 C           1.3335   -1.2049    4.1760 C.ar    1  UNL1        0.0000
      4 C           1.4859   -2.4488    3.5728 C.ar    1  UNL1        0.0000
      5 C           2.4600   -3.3356    3.9939 C.ar    1  UNL1        0.0000
      6 C           3.3070   -2.9870    5.0327 C.ar    1  UNL1        0.0000
      7 C           3.1695   -1.7525    5.6453 C.ar    1  UNL1        0.0000
      8 C           2.1901   -0.8730    5.2191 C.ar    1  UNL1        0.0000
      9 H           0.8297   -2.7255    2.7584 H       1  UNL1        0.0000
     10 H           2.5577   -4.3005    3.5152 H       1  UNL1        0.0000
     11 H           4.0721   -3.6749    5.3635 H       1  UNL1        0.0000
     12 H           3.8285   -1.4755    6.4563 H       1  UNL1        0.0000
     13 H           2.0888    0.0909    5.6995 H       1  UNL1        0.0000
     14 C           0.3765    1.7574    4.1763 C.ar    1  UNL1        0.0000
     15 C          -1.7103   -0.5524    4.1762 C.ar    1  UNL1        0.0000
     16 C           1.3774    2.5116    3.5732 C.ar    1  UNL1        0.0000
     17 C          -0.3391    2.3331    5.2196 C.ar    1  UNL1        0.0000
     18 C          -2.8639   -0.0625    3.5732 C.ar    1  UNL1        0.0000
     19 C          -1.8510   -1.4603    5.2193 C.ar    1  UNL1        0.0000
     20 C           1.6583    3.7986    3.9946 C.ar    1  UNL1        0.0000
     21 H           1.9451    2.0820    2.7587 H       1  UNL1        0.0000
     22 C          -0.0673    3.6209    5.6462 C.ar    1  UNL1        0.0000
     23 H          -1.1231    1.7631    5.7000 H       1  UNL1        0.0000
     24 C          -4.1189   -0.4628    3.9946 C.ar    1  UNL1        0.0000
     25 H          -2.7757    0.6442    2.7590 H       1  UNL1        0.0000
     26 C          -3.1023   -1.8688    5.6457 C.ar    1  UNL1        0.0000
     27 H          -0.9655   -1.8546    5.6994 H       1  UNL1        0.0000
     28 C           0.9329    4.3575    5.0336 C.ar    1  UNL1        0.0000
     29 H           2.4449    4.3660    3.5160 H       1  UNL1        0.0000
     30 H          -0.6367    4.0529    6.4572 H       1  UNL1        0.0000
     31 C          -4.2402   -1.3707    5.0333 C.ar    1  UNL1        0.0000
     32 H          -5.0035   -0.0650    3.5161 H       1  UNL1        0.0000
     33 H          -3.1917   -2.5782    6.4566 H       1  UNL1        0.0000
     34 H           1.1459    5.3640    5.3646 H       1  UNL1        0.0000
     35 H          -5.2184   -1.6895    5.3643 H       1  UNL1        0.0000
@<TRIPOS>BOND
     1     2     1    1
     2     9     4    1
     3    21    16    1
     4    25    18    1
     5    10     5    1
     6    29    20    1
     7    32    24    1
     8     1     3    1
     9     1    15    1
    10     1    14    1
    11     4     5   ar
    12     4     3   ar
    13    16    20   ar
    14    16    14   ar
    15    18    24   ar
    16    18    15   ar
    17     5     6   ar
    18    24    31   ar
    19    20    28   ar
    20     3     8   ar
    21    15    19   ar
    22    14    17   ar
    23     6    11    1
    24     6     7   ar
    25    31    35    1
    26    31    26   ar
    27    28    34    1
    28    28    22   ar
    29     8     7   ar
    30     8    13    1
    31    19    26   ar
    32    19    27    1
    33    17    22   ar
    34    17    23    1
    35     7    12    1
    36    26    33    1
    37    22    30    1
