@<TRIPOS>MOLECULE
2
 35 37 0 0 0
SMALL
GASTEIGER

@<TRIPOS>ATOM
      1 SI         -3.3871   -0.3371   -6.6617 Si      1  UNL1        0.0000
      2 O          -3.6238    0.8581   -5.6316 O.3     1  UNL1        0.0000
      3 C          -1.5188   -0.5103   -6.9875 C.ar    1  UNL1        0.0000
      4 C          -0.9849   -0.5039   -8.2711 C.ar    1  UNL1        0.0000
      5 C           0.3813   -0.5821   -8.4763 C.ar    1  UNL1        0.0000
      6 C           1.2421   -0.6647   -7.3947 C.ar    1  UNL1        0.0000
      7 C           0.7290   -0.6754   -6.1083 C.ar    1  UNL1        0.0000
      8 C          -0.6385   -0.6019   -5.9129 C.ar    1  UNL1        0.0000
      9 C          -4.2739    0.0560   -8.2845 C.ar    1  UNL1        0.0000
     10 C          -4.4535    1.3661   -8.7116 C.ar    1  UNL1        0.0000
     11 C          -5.0606    1.6462   -9.9226 C.ar    1  UNL1        0.0000
     12 C          -5.4973    0.6106  -10.7310 C.ar    1  UNL1        0.0000
     13 C          -5.3276   -0.7008  -10.3189 C.ar    1  UNL1        0.0000
     14 C          -4.7215   -0.9714   -9.1056 C.ar    1  UNL1        0.0000
     15 C          -4.0006   -1.9604   -5.8966 C.ar    1  UNL1        0.0000
     16 C          -3.5201   -3.1858   -6.3456 C.ar    1  UNL1        0.0000
     17 C          -3.9604   -4.3722   -5.7878 C.ar    1  UNL1        0.0000
     18 C          -4.8896   -4.3522   -4.7607 C.ar    1  UNL1        0.0000
     19 C          -5.3738   -3.1413   -4.2966 C.ar    1  UNL1        0.0000
     20 C          -4.9315   -1.9597   -4.8641 C.ar    1  UNL1        0.0000
     21 H          -1.6519   -0.4335   -9.1201 H       1  UNL1        0.0000
     22 H           0.7771   -0.5753   -9.4824 H       1  UNL1        0.0000
     23 H           2.3096   -0.7206   -7.5537 H       1  UNL1        0.0000
     24 H           1.3927   -0.7401   -5.2571 H       1  UNL1        0.0000
     25 H          -1.0303   -0.6121   -4.9031 H       1  UNL1        0.0000
     26 H          -4.1147    2.1778   -8.0822 H       1  UNL1        0.0000
     27 H          -5.1923    2.6719  -10.2382 H       1  UNL1        0.0000
     28 H          -5.9703    0.8243  -11.6790 H       1  UNL1        0.0000
     29 H          -5.6692   -1.5128  -10.9456 H       1  UNL1        0.0000
     30 H          -4.5955   -1.9966   -8.7861 H       1  UNL1        0.0000
     31 H          -2.7847   -3.2070   -7.1388 H       1  UNL1        0.0000
     32 H          -3.5767   -5.3155   -6.1511 H       1  UNL1        0.0000
     33 H          -5.2326   -5.2785   -4.3219 H       1  UNL1        0.0000
     34 H          -6.0954   -3.1189   -3.4918 H       1  UNL1        0.0000
     35 H          -5.3109   -1.0153   -4.4974 H       1  UNL1        0.0000
@<TRIPOS>BOND
     1    28    12    1
     2    29    13    1
     3    12    13   ar
     4    12    11   ar
     5    13    14   ar
     6    27    11    1
     7    11    10   ar
     8    22     5    1
     9    21     4    1
    10    14    30    1
    11    14     9   ar
    12    10     9   ar
    13    10    26    1
    14     5     4   ar
    15     5     6   ar
    16     9     1    1
    17     4     3   ar
    18    23     6    1
    19     6     7   ar
    20    31    16    1
    21     3     1    1
    22     3     8   ar
    23     1    15    1
    24     1     2    1
    25    16    15   ar
    26    16    17   ar
    27    32    17    1
    28     7     8   ar
    29     7    24    1
    30     8    25    1
    31    15    20   ar
    32    17    18   ar
    33    20    35    1
    34    20    19   ar
    35    18    33    1
    36    18    19   ar
    37    19    34    1
