@<TRIPOS>MOLECULE
1
 35 37 0 0 0
SMALL
GASTEIGER

@<TRIPOS>ATOM
      1 O          -3.1507    8.8054    6.7488 O.3     1  UNL1        0.0000
      2 SI         -3.5106    7.2542    6.7300 Si      1  UNL1        0.0000
      3 C          -1.9154    6.2327    6.5890 C.ar    1  UNL1        0.0000
      4 C          -1.8644    4.9093    7.0126 C.ar    1  UNL1        0.0000
      5 C          -0.7046    4.1653    6.8932 C.ar    1  UNL1        0.0000
      6 C           0.4326    4.7380    6.3483 C.ar    1  UNL1        0.0000
      7 C           0.4031    6.0572    5.9289 C.ar    1  UNL1        0.0000
      8 C          -0.7622    6.7928    6.0494 C.ar    1  UNL1        0.0000
      9 C          -4.6409    6.8979    5.2523 C.ar    1  UNL1        0.0000
     10 C          -4.7690    5.6050    4.7585 C.ar    1  UNL1        0.0000
     11 C          -5.6144    5.3257    3.7003 C.ar    1  UNL1        0.0000
     12 C          -6.3464    6.3434    3.1116 C.ar    1  UNL1        0.0000
     13 C          -6.2240    7.6386    3.5848 C.ar    1  UNL1        0.0000
     14 C          -5.3793    7.9078    4.6466 C.ar    1  UNL1        0.0000
     15 C          -4.3770    6.7953    8.3562 C.ar    1  UNL1        0.0000
     16 C          -4.0504    7.4611    9.5335 C.ar    1  UNL1        0.0000
     17 C          -4.6528    7.1305   10.7337 C.ar    1  UNL1        0.0000
     18 C          -5.5972    6.1187   10.7760 C.ar    1  UNL1        0.0000
     19 C          -5.9363    5.4471    9.6134 C.ar    1  UNL1        0.0000
     20 C          -5.3304    5.7857    8.4168 C.ar    1  UNL1        0.0000
     21 H          -2.7450    4.4600    7.4522 H       1  UNL1        0.0000
     22 H          -0.6844    3.1372    7.2277 H       1  UNL1        0.0000
     23 H           1.3399    4.1581    6.2537 H       1  UNL1        0.0000
     24 H           1.2894    6.5088    5.5038 H       1  UNL1        0.0000
     25 H          -0.7818    7.8249    5.7235 H       1  UNL1        0.0000
     26 H          -4.1916    4.8075    5.2060 H       1  UNL1        0.0000
     27 H          -5.7032    4.3130    3.3315 H       1  UNL1        0.0000
     28 H          -7.0071    6.1275    2.2839 H       1  UNL1        0.0000
     29 H          -6.7886    8.4380    3.1245 H       1  UNL1        0.0000
     30 H          -5.2837    8.9208    5.0132 H       1  UNL1        0.0000
     31 H          -3.3144    8.2551    9.5026 H       1  UNL1        0.0000
     32 H          -4.3858    7.6585   11.6394 H       1  UNL1        0.0000
     33 H          -6.0697    5.8555   11.7119 H       1  UNL1        0.0000
     34 H          -6.6754    4.6582    9.6411 H       1  UNL1        0.0000
     35 H          -5.6063    5.2637    7.5103 H       1  UNL1        0.0000
@<TRIPOS>BOND
     1    28    12    1
     2    12    13   ar
     3    12    11   ar
     4    29    13    1
     5    27    11    1
     6    13    14   ar
     7    11    10   ar
     8    14    30    1
     9    14     9   ar
    10    10    26    1
    11    10     9   ar
    12     9     2    1
    13    24     7    1
    14    25     8    1
    15     7     8   ar
    16     7     6   ar
    17     8     3   ar
    18    23     6    1
    19     6     5   ar
    20     3     2    1
    21     3     4   ar
    22     2     1    1
    23     2    15    1
    24     5     4   ar
    25     5    22    1
    26     4    21    1
    27    35    20    1
    28    15    20   ar
    29    15    16   ar
    30    20    19   ar
    31    31    16    1
    32    16    17   ar
    33    19    34    1
    34    19    18   ar
    35    17    18   ar
    36    17    32    1
    37    18    33    1
