@<TRIPOS>MOLECULE
1
 13 13 0 0 0
SMALL
GASTEIGER

@<TRIPOS>ATOM
      1 O          12.4290    5.9420   11.8701 O.3     1  UNL1       -0.3798
      2 C          12.5592    4.8144   11.0068 C.3     1  UNL1        0.0477
      3 H          12.5865    5.1818    9.9765 H       1  UNL1        0.0560
      4 H          11.7078    4.1330   11.1601 H       1  UNL1        0.0560
      5 C          13.8654    4.1561   11.4409 C.3     1  UNL1       -0.0274
      6 H          13.9378    3.1196   11.1209 H       1  UNL1        0.0288
      7 H          14.7061    4.7191   11.0358 H       1  UNL1        0.0288
      8 C          13.7977    4.3054   12.9623 C.3     1  UNL1       -0.0274
      9 H          13.3574    3.4186   13.4157 H       1  UNL1        0.0288
     10 H          14.7809    4.4634   13.3988 H       1  UNL1        0.0288
     11 C          12.8779    5.5229   13.1694 C.3     1  UNL1        0.0477
     12 H          12.0097    5.2609   13.7891 H       1  UNL1        0.0560
     13 H          13.3998    6.3696   13.6236 H       1  UNL1        0.0560
@<TRIPOS>BOND
     1     3     2    1
     2     2     4    1
     3     2     5    1
     4     2     1    1
     5     7     5    1
     6     6     5    1
     7     5     8    1
     8     1    11    1
     9     8    11    1
    10     8    10    1
    11     8     9    1
    12    11    13    1
    13    11    12    1
