@<TRIPOS>MOLECULE
1
 13 13 0 0 0
SMALL
GASTEIGER

@<TRIPOS>ATOM
      1 O          10.0853    6.1933    9.5867 O.3     1  UNL1       -0.3798
      2 C           9.2106    5.0593    9.4771 C.3     1  UNL1        0.0477
      3 H           8.5455    5.0569   10.3412 H       1  UNL1        0.0560
      4 H           9.8172    4.1424    9.4858 H       1  UNL1        0.0560
      5 C           8.4598    5.1977    8.1416 C.3     1  UNL1       -0.0274
      6 H           7.4173    5.4584    8.3082 H       1  UNL1        0.0288
      7 H           8.4993    4.2652    7.5809 H       1  UNL1        0.0288
      8 C           9.2025    6.3286    7.4173 C.3     1  UNL1       -0.0274
      9 H           8.6223    7.2485    7.4664 H       1  UNL1        0.0288
     10 H           9.4135    6.0974    6.3758 H       1  UNL1        0.0288
     11 C          10.4792    6.4752    8.2430 C.3     1  UNL1        0.0477
     12 H          11.2287    5.7344    7.9200 H       1  UNL1        0.0560
     13 H          10.9097    7.4771    8.2318 H       1  UNL1        0.0560
@<TRIPOS>BOND
     1    10     8    1
     2     8     9    1
     3     8     5    1
     4     8    11    1
     5     7     5    1
     6    12    11    1
     7     5     6    1
     8     5     2    1
     9    13    11    1
    10    11     1    1
    11     2     4    1
    12     2     1    1
    13     2     3    1
