@<TRIPOS>MOLECULE
2
 14 13 0 0 0
SMALL
GASTEIGER

@<TRIPOS>ATOM
      1 SI          2.2159    3.0263    6.3346 Si      1  UNL1        0.0000
      2 O           3.4979    2.9996    7.2356 O.3     1  UNL1        0.0000
      3 C           2.6456    3.3994    4.5017 C.3     1  UNL1        0.0000
      4 C           0.9650    4.3621    6.9062 C.3     1  UNL1        0.0000
      5 C           1.2935    1.3461    6.3634 C.3     1  UNL1        0.0000
      6 H           1.7699    3.7408    3.9581 H       1  UNL1        0.0000
      7 H           3.4065    4.1714    4.4149 H       1  UNL1        0.0000
      8 H           3.0194    2.5162    3.9895 H       1  UNL1        0.0000
      9 H           0.0036    4.2269    6.4200 H       1  UNL1        0.0000
     10 H           0.7993    4.3175    7.9795 H       1  UNL1        0.0000
     11 H           1.3093    5.3662    6.6734 H       1  UNL1        0.0000
     12 H           0.5736    1.2851    5.5530 H       1  UNL1        0.0000
     13 H           1.9807    0.5109    6.2563 H       1  UNL1        0.0000
     14 H           0.7480    1.2012    7.2926 H       1  UNL1        0.0000
@<TRIPOS>BOND
     1     6     3    1
     2     8     3    1
     3     7     3    1
     4     3     1    1
     5    12     5    1
     6    13     5    1
     7     1     5    1
     8     1     4    1
     9     1     2    1
    10     5    14    1
    11     9     4    1
    12    11     4    1
    13     4    10    1
