@<TRIPOS>MOLECULE
2
 35 37 0 0 0
SMALL
GASTEIGER

@<TRIPOS>ATOM
      1 SI          7.3354    8.3663    7.7695 Si      1  UNL1        0.0000
      2 O           6.7404    7.8299    6.3461 O.3     1  UNL1        0.0000
      3 C           5.7263    8.0846    8.7683 C.ar    1  UNL1        0.0000
      4 C           5.0310    6.8991    8.4961 C.ar    1  UNL1        0.0000
      5 C           3.7344    6.7142    8.9544 C.ar    1  UNL1        0.0000
      6 C           3.1171    7.7095    9.6970 C.ar    1  UNL1        0.0000
      7 C           3.8036    8.8746    9.9963 C.ar    1  UNL1        0.0000
      8 C           5.0936    9.0633    9.5282 C.ar    1  UNL1        0.0000
      9 C           8.8326    7.3346    8.2701 C.ar    1  UNL1        0.0000
     10 C           9.4443    7.4916    9.5104 C.ar    1  UNL1        0.0000
     11 C          10.5497    6.7357    9.8558 C.ar    1  UNL1        0.0000
     12 C          11.0603    5.8069    8.9637 C.ar    1  UNL1        0.0000
     13 C          10.4589    5.6349    7.7280 C.ar    1  UNL1        0.0000
     14 C           9.3540    6.3931    7.3854 C.ar    1  UNL1        0.0000
     15 C           7.5893   10.2345    7.5581 C.ar    1  UNL1        0.0000
     16 C           6.7341   10.9179    6.6932 C.ar    1  UNL1        0.0000
     17 C           6.8561   12.2829    6.5057 C.ar    1  UNL1        0.0000
     18 C           7.8376   12.9888    7.1836 C.ar    1  UNL1        0.0000
     19 C           8.6969   12.3238    8.0419 C.ar    1  UNL1        0.0000
     20 C           8.5728   10.9576    8.2255 C.ar    1  UNL1        0.0000
     21 H           5.5419    6.0835    7.9829 H       1  UNL1        0.0000
     22 H           3.2117    5.7927    8.7366 H       1  UNL1        0.0000
     23 H           2.1040    7.5742   10.0449 H       1  UNL1        0.0000
     24 H           3.3260    9.6463   10.5817 H       1  UNL1        0.0000
     25 H           5.6159    9.9841    9.7481 H       1  UNL1        0.0000
     26 H           9.0430    8.2084   10.2117 H       1  UNL1        0.0000
     27 H          11.0143    6.8684   10.8219 H       1  UNL1        0.0000
     28 H          11.9240    5.2167    9.2328 H       1  UNL1        0.0000
     29 H          10.8528    4.9089    7.0319 H       1  UNL1        0.0000
     30 H           8.8791    6.2630    6.4222 H       1  UNL1        0.0000
     31 H           5.9615   10.3622    6.1501 H       1  UNL1        0.0000
     32 H           6.1864   12.7955    5.8312 H       1  UNL1        0.0000
     33 H           7.9341   14.0547    7.0393 H       1  UNL1        0.0000
     34 H           9.4659   12.8707    8.5677 H       1  UNL1        0.0000
     35 H           9.2492   10.4409    8.8899 H       1  UNL1        0.0000
@<TRIPOS>BOND
     1    32    17    1
     2    31    16    1
     3     2     1    1
     4    30    14    1
     5    17    16   ar
     6    17    18   ar
     7    16    15   ar
     8    29    13    1
     9    33    18    1
    10    18    19   ar
    11    14    13   ar
    12    14     9   ar
    13    15     1    1
    14    15    20   ar
    15    13    12   ar
    16     1     9    1
    17     1     3    1
    18    21     4    1
    19    19    20   ar
    20    19    34    1
    21    20    35    1
    22     9    10   ar
    23     4     3   ar
    24     4     5   ar
    25    22     5    1
    26     3     8   ar
    27     5     6   ar
    28    12    28    1
    29    12    11   ar
    30    10    11   ar
    31    10    26    1
    32     8    25    1
    33     8     7   ar
    34     6     7   ar
    35     6    23    1
    36    11    27    1
    37     7    24    1
