@<TRIPOS>MOLECULE
1
 13 13 0 0 0
SMALL
GASTEIGER

@<TRIPOS>ATOM
      1 O           6.6419   12.3664   -1.2586 O.3     1  UNL1       -0.3798
      2 C           6.6416   11.0103   -0.8338 C.3     1  UNL1        0.0477
      3 H           5.7492   10.5305   -1.2344 H       1  UNL1        0.0560
      4 H           6.6203   10.9746    0.2656 H       1  UNL1        0.0560
      5 C           7.9501   10.4043   -1.3651 C.3     1  UNL1       -0.0274
      6 H           7.7761    9.9068   -2.3175 H       1  UNL1        0.0288
      7 H           8.3626    9.6791   -0.6667 H       1  UNL1        0.0288
      8 C           8.8639   11.6285   -1.5475 C.3     1  UNL1       -0.0274
      9 H           9.7745   11.5591   -0.9561 H       1  UNL1        0.0288
     10 H           9.1384   11.7522   -2.5933 H       1  UNL1        0.0288
     11 C           7.9840   12.7990   -1.0833 C.3     1  UNL1        0.0477
     12 H           8.1620   13.0109   -0.0186 H       1  UNL1        0.0560
     13 H           8.1219   13.7101   -1.6646 H       1  UNL1        0.0560
@<TRIPOS>BOND
     1    10     8    1
     2     6     5    1
     3    13    11    1
     4     8     5    1
     5     8    11    1
     6     8     9    1
     7     5     2    1
     8     5     7    1
     9     1    11    1
    10     1     2    1
    11     3     2    1
    12    11    12    1
    13     2     4    1
