@<TRIPOS>MOLECULE
1
 13 13 0 0 0
SMALL
GASTEIGER

@<TRIPOS>ATOM
      1 O           3.0560   14.3808   -5.1070 O.3     1  UNL1       -0.3798
      2 C           3.2655   15.1757   -6.2813 C.3     1  UNL1        0.0477
      3 H           3.6960   14.5382   -7.0637 H       1  UNL1        0.0560
      4 H           3.9748   15.9688   -6.0369 H       1  UNL1        0.0560
      5 C           1.8955   15.6991   -6.7024 C.3     1  UNL1       -0.0274
      6 H           1.8435   15.9059   -7.7686 H       1  UNL1        0.0288
      7 H           1.6483   16.6054   -6.1492 H       1  UNL1        0.0288
      8 C           0.9911   14.5504   -6.2654 C.3     1  UNL1       -0.0274
      9 H          -0.0456   14.8471   -6.1272 H       1  UNL1        0.0288
     10 H           1.0350   13.7378   -6.9913 H       1  UNL1        0.0288
     11 C           1.6519   14.1294   -4.9558 C.3     1  UNL1        0.0477
     12 H           1.2775   14.7317   -4.1181 H       1  UNL1        0.0560
     13 H           1.5151   13.0699   -4.7267 H       1  UNL1        0.0560
@<TRIPOS>BOND
     1     6     5    1
     2     3     2    1
     3    10     8    1
     4     5     2    1
     5     5     8    1
     6     5     7    1
     7     2     4    1
     8     2     1    1
     9     8     9    1
    10     8    11    1
    11     1    11    1
    12    11    13    1
    13    11    12    1
