@<TRIPOS>MOLECULE
1
 14 13 0 0 0
SMALL
GASTEIGER

@<TRIPOS>ATOM
      1 O           3.1715    9.1429   -2.8703 O.3     1  UNL1        0.0000
      2 SI          3.0353   10.6204   -2.2762 Si      1  UNL1        0.0000
      3 C           3.2702   11.8697   -3.6973 C.3     1  UNL1        0.0000
      4 C           1.2986   10.8556   -1.5086 C.3     1  UNL1        0.0000
      5 C           4.3669   10.9182   -0.9377 C.3     1  UNL1        0.0000
      6 H           4.2493   11.7758   -4.1572 H       1  UNL1        0.0000
      7 H           2.5290   11.7345   -4.4792 H       1  UNL1        0.0000
      8 H           3.1755   12.8823   -3.3199 H       1  UNL1        0.0000
      9 H           1.1055   10.1142   -0.7378 H       1  UNL1        0.0000
     10 H           1.2160   11.8363   -1.0510 H       1  UNL1        0.0000
     11 H           0.5103   10.7739   -2.2534 H       1  UNL1        0.0000
     12 H           4.3105   10.1688   -0.1527 H       1  UNL1        0.0000
     13 H           5.3720   10.8895   -1.3519 H       1  UNL1        0.0000
     14 H           4.2305   11.8910   -0.4764 H       1  UNL1        0.0000
@<TRIPOS>BOND
     1     7     3    1
     2     6     3    1
     3     3     8    1
     4     3     2    1
     5     1     2    1
     6     2     4    1
     7     2     5    1
     8    11     4    1
     9     4    10    1
    10     4     9    1
    11    13     5    1
    12     5    14    1
    13     5    12    1
