@<TRIPOS>MOLECULE
1
 14 13 0 0 0
SMALL
GASTEIGER

@<TRIPOS>ATOM
      1 O           0.7348    1.2750    4.5237 O.3     1  UNL1        0.0000
      2 SI         -0.0239    2.6994    4.5237 Si      1  UNL1        0.0000
      3 C          -1.9273    2.5364    4.5237 C.3     1  UNL1        0.0000
      4 C           0.5109    3.7000    6.0693 C.3     1  UNL1        0.0000
      5 H          -2.2778    1.9957    5.3995 H       1  UNL1        0.0000
      6 H          -2.4048    3.5113    4.5237 H       1  UNL1        0.0000
      7 H           0.1151    3.2750    6.9861 H       1  UNL1        0.0000
      8 H           1.5902    3.7647    6.1677 H       1  UNL1        0.0000
      9 H           0.1291    4.7116    5.9887 H       1  UNL1        0.0000
     10 C           0.5109    3.7000    2.9782 C.3     1  UNL1        0.0000
     11 H          -2.2779    1.9957    3.6479 H       1  UNL1        0.0000
     12 H           0.1152    3.2750    2.0614 H       1  UNL1        0.0000
     13 H           1.5902    3.7647    2.8798 H       1  UNL1        0.0000
     14 H           0.1291    4.7115    3.0587 H       1  UNL1        0.0000
@<TRIPOS>BOND
     1    12    10    1
     2    13    10    1
     3    10    14    1
     4    10     2    1
     5    11     3    1
     6     1     2    1
     7     3     6    1
     8     3     2    1
     9     3     5    1
    10     2     4    1
    11     9     4    1
    12     4     8    1
    13     4     7    1
