@<TRIPOS>MOLECULE
2
 35 37 0 0 0
SMALL
GASTEIGER

@<TRIPOS>ATOM
      1 SI          6.7957    4.0866    1.1639 Si      1  UNL1        0.0000
      2 O           8.3129    4.2786    1.6560 O.3     1  UNL1        0.0000
      3 C           6.3260    2.2864    1.5414 C.ar    1  UNL1        0.0000
      4 C           5.9949    4.1711   -2.9627 C.ar    1  UNL1        0.0000
      5 H           5.4402    3.5898   -3.6859 H       1  UNL1        0.0000
      6 C           7.4091    6.0367   -2.4408 C.ar    1  UNL1        0.0000
      7 H           7.9598    6.9124   -2.7519 H       1  UNL1        0.0000
      8 C           3.5730    6.5075    2.3266 C.ar    1  UNL1        0.0000
      9 H           2.5541    6.6780    2.0087 H       1  UNL1        0.0000
     10 C           5.6701    5.3350    2.0622 C.ar    1  UNL1        0.0000
     11 C           6.7176    4.5228   -0.6870 C.ar    1  UNL1        0.0000
     12 C           6.0080    3.7902   -1.6316 C.ar    1  UNL1        0.0000
     13 H           5.4662    2.9091   -1.3174 H       1  UNL1        0.0000
     14 C           4.3550    5.5733    1.6713 C.ar    1  UNL1        0.0000
     15 H           3.9445    5.0243    0.8355 H       1  UNL1        0.0000
     16 C           6.6950    5.2953   -3.3688 C.ar    1  UNL1        0.0000
     17 H           6.6865    5.5919   -4.4078 H       1  UNL1        0.0000
     18 C           7.4169    5.6512   -1.1124 C.ar    1  UNL1        0.0000
     19 H           7.9774    6.2288   -0.3830 H       1  UNL1        0.0000
     20 C           7.3342    1.3349    1.6739 C.ar    1  UNL1        0.0000
     21 H           8.3634    1.6413    1.5453 H       1  UNL1        0.0000
     22 C           7.0392    0.0187    1.9793 C.ar    1  UNL1        0.0000
     23 H           7.8388   -0.7006    2.0844 H       1  UNL1        0.0000
     24 C           6.1845    6.0776    3.1222 C.ar    1  UNL1        0.0000
     25 H           7.2180    5.9204    3.4266 H       1  UNL1        0.0000
     26 C           5.0088    1.8765    1.7176 C.ar    1  UNL1        0.0000
     27 H           4.2126    2.6006    1.6262 H       1  UNL1        0.0000
     28 C           4.7060    0.5604    2.0194 C.ar    1  UNL1        0.0000
     29 H           3.6766    0.2601    2.1558 H       1  UNL1        0.0000
     30 C           4.0968    7.2260    3.3891 C.ar    1  UNL1        0.0000
     31 H           3.4866    7.9535    3.9048 H       1  UNL1        0.0000
     32 C           5.4069    7.0127    3.7850 C.ar    1  UNL1        0.0000
     33 H           5.8257    7.5774    4.6057 H       1  UNL1        0.0000
     34 C           5.7218   -0.3721    2.1528 C.ar    1  UNL1        0.0000
     35 H           5.4860   -1.3989    2.3937 H       1  UNL1        0.0000
@<TRIPOS>BOND
     1    17    16    1
     2     5     4    1
     3    16     4   ar
     4    16     6   ar
     5     4    12   ar
     6     7     6    1
     7     6    18   ar
     8    12    13    1
     9    12    11   ar
    10    18    11   ar
    11    18    19    1
    12    11     1    1
    13    15    14    1
    14     1     3    1
    15     1     2    1
    16     1    10    1
    17     3    20   ar
    18     3    26   ar
    19    21    20    1
    20    27    26    1
    21    14    10   ar
    22    14     8   ar
    23    20    22   ar
    24    26    28   ar
    25    22    23    1
    26    22    34   ar
    27     9     8    1
    28    28    34   ar
    29    28    29    1
    30    10    24   ar
    31    34    35    1
    32     8    30   ar
    33    24    25    1
    34    24    32   ar
    35    30    32   ar
    36    30    31    1
    37    32    33    1
