@<TRIPOS>MOLECULE
1
 35 37 0 0 0
SMALL
GASTEIGER

@<TRIPOS>ATOM
      1 O           9.0139    7.0554    1.6561 O.3     1  UNL1        0.0000
      2 SI          9.6063    8.4653    1.1640 Si      1  UNL1        0.0000
      3 C           8.2821    9.7723    1.5414 C.ar    1  UNL1        0.0000
      4 C           6.9540    9.3749    1.6739 C.ar    1  UNL1        0.0000
      5 H           6.7047    8.3305    1.5452 H       1  UNL1        0.0000
      6 C           5.9617   10.2886    1.9794 C.ar    1  UNL1        0.0000
      7 H           4.9390    9.9557    2.0845 H       1  UNL1        0.0000
      8 C           6.2820   11.6249    2.1529 C.ar    1  UNL1        0.0000
      9 C           7.5974   12.0383    2.0195 C.ar    1  UNL1        0.0000
     10 C           8.5858   11.1179    1.7176 C.ar    1  UNL1        0.0000
     11 H           9.6110   11.4453    1.6263 H       1  UNL1        0.0000
     12 H           7.8521   13.0799    2.1560 H       1  UNL1        0.0000
     13 H           5.5107   12.3424    2.3938 H       1  UNL1        0.0000
     14 C          11.2502    8.8159    2.0621 C.ar    1  UNL1        0.0000
     15 C          12.1142    9.8357    1.6713 C.ar    1  UNL1        0.0000
     16 C          13.3143   10.0457    2.3265 C.ar    1  UNL1        0.0000
     17 H          13.9714   10.8428    2.0085 H       1  UNL1        0.0000
     18 C          13.6746    9.2329    3.3890 C.ar    1  UNL1        0.0000
     19 H          14.6097    9.3976    3.9047 H       1  UNL1        0.0000
     20 C          12.8349    8.2049    3.7849 C.ar    1  UNL1        0.0000
     21 C          11.6363    7.9991    3.1220 C.ar    1  UNL1        0.0000
     22 H          10.9832    7.1829    3.4268 H       1  UNL1        0.0000
     23 H          13.1144    7.5602    4.6057 H       1  UNL1        0.0000
     24 H          11.8441   10.4655    0.8353 H       1  UNL1        0.0000
     25 C          10.0231    8.3148   -0.6869 C.ar    1  UNL1        0.0000
     26 C           9.7434    9.2957   -1.6316 C.ar    1  UNL1        0.0000
     27 C          10.0798    9.1165   -2.9627 C.ar    1  UNL1        0.0000
     28 H           9.8539    9.8876   -3.6859 H       1  UNL1        0.0000
     29 C          10.7034    7.9481   -3.3688 C.ar    1  UNL1        0.0000
     30 C          10.9884    6.9590   -2.4407 C.ar    1  UNL1        0.0000
     31 H          11.4711    6.0441   -2.7519 H       1  UNL1        0.0000
     32 C          10.6507    7.1450   -1.1124 C.ar    1  UNL1        0.0000
     33 H          10.8704    6.3707   -0.3829 H       1  UNL1        0.0000
     34 H          10.9645    7.8071   -4.4078 H       1  UNL1        0.0000
     35 H           9.2515   10.2056   -1.3174 H       1  UNL1        0.0000
@<TRIPOS>BOND
     1    34    29    1
     2    28    27    1
     3    29    27   ar
     4    29    30   ar
     5    27    26   ar
     6    31    30    1
     7    30    32   ar
     8    26    35    1
     9    26    25   ar
    10    32    25   ar
    11    32    33    1
    12    25     2    1
    13    24    15    1
    14     2     3    1
    15     2     1    1
    16     2    14    1
    17     3     4   ar
    18     3    10   ar
    19     5     4    1
    20    11    10    1
    21    15    14   ar
    22    15    16   ar
    23     4     6   ar
    24    10     9   ar
    25     6     7    1
    26     6     8   ar
    27    17    16    1
    28     9     8   ar
    29     9    12    1
    30    14    21   ar
    31     8    13    1
    32    16    18   ar
    33    21    22    1
    34    21    20   ar
    35    18    20   ar
    36    18    19    1
    37    20    23    1
