@<TRIPOS>MOLECULE
1
 35 37 0 0 0
SMALL
GASTEIGER

@<TRIPOS>ATOM
      1 O          11.0682    5.0599    1.6560 O.3     1  UNL1        0.0000
      2 SI         11.9930    3.8419    1.1639 Si      1  UNL1        0.0000
      3 C          13.7869    4.3352    1.5414 C.ar    1  UNL1        0.0000
      4 C          14.1069    5.6841    1.6739 C.ar    1  UNL1        0.0000
      5 H          13.3270    6.4222    1.5453 H       1  UNL1        0.0000
      6 C          15.3943    6.0867    1.9793 C.ar    1  UNL1        0.0000
      7 H          15.6174    7.1387    2.0845 H       1  UNL1        0.0000
      8 C          16.3914    5.1411    2.1529 C.ar    1  UNL1        0.0000
      9 C          16.0917    3.7952    2.0194 C.ar    1  UNL1        0.0000
     10 C          14.8005    3.3995    1.7176 C.ar    1  UNL1        0.0000
     11 H          14.5715    2.3479    1.6262 H       1  UNL1        0.0000
     12 H          16.8664    3.0539    2.1558 H       1  UNL1        0.0000
     13 H          17.3985    5.4503    2.3937 H       1  UNL1        0.0000
     14 C          11.4747    2.2430    2.0622 C.ar    1  UNL1        0.0000
     15 C          11.9259    0.9849    1.6714 C.ar    1  UNL1        0.0000
     16 C          11.5078   -0.1594    2.3266 C.ar    1  UNL1        0.0000
     17 H          11.8696   -1.1271    2.0086 H       1  UNL1        0.0000
     18 C          10.6238   -0.0651    3.3891 C.ar    1  UNL1        0.0000
     19 H          10.2989   -0.9573    3.9049 H       1  UNL1        0.0000
     20 C          10.1534    1.1761    3.7850 C.ar    1  UNL1        0.0000
     21 C          10.5744    2.3171    3.1222 C.ar    1  UNL1        0.0000
     22 H          10.1939    3.2908    3.4267 H       1  UNL1        0.0000
     23 H           9.4551    1.2565    4.6058 H       1  UNL1        0.0000
     24 H          12.6064    0.9039    0.8354 H       1  UNL1        0.0000
     25 C          11.6543    3.5562   -0.6870 C.ar    1  UNL1        0.0000
     26 C          12.6436    3.3080   -1.6316 C.ar    1  UNL1        0.0000
     27 C          12.3202    3.1061   -2.9627 C.ar    1  UNL1        0.0000
     28 H          13.1010    2.9164   -3.6859 H       1  UNL1        0.0000
     29 C          10.9966    3.1504   -3.3688 C.ar    1  UNL1        0.0000
     30 C           9.9975    3.3980   -2.4408 C.ar    1  UNL1        0.0000
     31 H           8.9638    3.4372   -2.7519 H       1  UNL1        0.0000
     32 C          10.3275    3.5976   -1.1125 C.ar    1  UNL1        0.0000
     33 H           9.5470    3.7942   -0.3830 H       1  UNL1        0.0000
     34 H          10.7439    2.9947   -4.4078 H       1  UNL1        0.0000
     35 H          13.6775    3.2793   -1.3174 H       1  UNL1        0.0000
@<TRIPOS>BOND
     1    34    29    1
     2    28    27    1
     3    29    27   ar
     4    29    30   ar
     5    27    26   ar
     6    31    30    1
     7    30    32   ar
     8    26    35    1
     9    26    25   ar
    10    32    25   ar
    11    32    33    1
    12    25     2    1
    13    24    15    1
    14     2     3    1
    15     2     1    1
    16     2    14    1
    17     3     4   ar
    18     3    10   ar
    19     5     4    1
    20    11    10    1
    21    15    14   ar
    22    15    16   ar
    23     4     6   ar
    24    10     9   ar
    25     6     7    1
    26     6     8   ar
    27    17    16    1
    28     9     8   ar
    29     9    12    1
    30    14    21   ar
    31     8    13    1
    32    16    18   ar
    33    21    22    1
    34    21    20   ar
    35    18    20   ar
    36    18    19    1
    37    20    23    1
