@<TRIPOS>MOLECULE
2
 35 37 0 0 0
SMALL
GASTEIGER

@<TRIPOS>ATOM
      1 SI          9.4650    5.4646    5.5564 Si      1  UNL1        0.0000
      2 O           9.4650    5.4645    3.9503 O.3     1  UNL1        0.0000
      3 C           8.3684    4.0029    6.0945 C.ar    1  UNL1        0.0000
      4 C           7.6581    3.3034    5.1193 C.ar    1  UNL1        0.0000
      5 H           7.7531    3.5987    4.0795 H       1  UNL1        0.0000
      6 C           6.7325    1.8388    6.7746 C.ar    1  UNL1        0.0000
      7 H           6.1015    1.0028    7.0398 H       1  UNL1        0.0000
      8 C           8.2430    3.5882    7.4166 C.ar    1  UNL1        0.0000
      9 H           8.7928    4.1055    8.1889 H       1  UNL1        0.0000
     10 C           7.4348    2.5181    7.7567 C.ar    1  UNL1        0.0000
     11 H           7.3526    2.2098    8.7893 H       1  UNL1        0.0000
     12 C           6.8466    2.2329    5.4516 C.ar    1  UNL1        0.0000
     13 H           6.3094    1.7056    4.6760 H       1  UNL1        0.0000
     14 C          11.2792    5.2458    6.0946 C.ar    1  UNL1        0.0000
     15 C          12.2402    4.9804    5.1193 C.ar    1  UNL1        0.0000
     16 H          11.9369    4.9150    4.0796 H       1  UNL1        0.0000
     17 C          13.5731    4.8129    5.4518 C.ar    1  UNL1        0.0000
     18 C          13.9713    4.9111    6.7747 C.ar    1  UNL1        0.0000
     19 H          15.0108    4.7827    7.0399 H       1  UNL1        0.0000
     20 C          13.0319    5.1797    7.7568 C.ar    1  UNL1        0.0000
     21 C          11.7010    5.3445    7.4166 C.ar    1  UNL1        0.0000
     22 H          10.9781    5.5620    8.1889 H       1  UNL1        0.0000
     23 H          13.3399    5.2627    8.7894 H       1  UNL1        0.0000
     24 H          14.2983    4.6113    4.6761 H       1  UNL1        0.0000
     25 C           8.7473    7.1451    6.0945 C.ar    1  UNL1        0.0000
     26 C           8.4967    8.1101    5.1193 C.ar    1  UNL1        0.0000
     27 H           8.7051    7.8802    4.0796 H       1  UNL1        0.0000
     28 C           7.9754    9.3481    5.4517 C.ar    1  UNL1        0.0000
     29 C           7.6912    9.6439    6.7747 C.ar    1  UNL1        0.0000
     30 H           7.2827   10.6084    7.0399 H       1  UNL1        0.0000
     31 C           7.9283    8.6960    7.7568 C.ar    1  UNL1        0.0000
     32 C           8.4510    7.4611    7.4166 C.ar    1  UNL1        0.0000
     33 H           8.6241    6.7263    8.1889 H       1  UNL1        0.0000
     34 H           7.7023    8.9213    8.7894 H       1  UNL1        0.0000
     35 H           7.7875   10.0770    4.6761 H       1  UNL1        0.0000
@<TRIPOS>BOND
     1     2     1    1
     2     5     4    1
     3    16    15    1
     4    27    26    1
     5    13    12    1
     6    24    17    1
     7    35    28    1
     8     4    12   ar
     9     4     3   ar
    10    26    28   ar
    11    26    25   ar
    12    15    17   ar
    13    15    14   ar
    14    12     6   ar
    15    28    29   ar
    16    17    18   ar
    17     1     3    1
    18     1    25    1
    19     1    14    1
    20     3     8   ar
    21    25    32   ar
    22    14    21   ar
    23     6     7    1
    24     6    10   ar
    25    29    30    1
    26    29    31   ar
    27    18    19    1
    28    18    20   ar
    29     8    10   ar
    30     8     9    1
    31    32    31   ar
    32    32    33    1
    33    21    20   ar
    34    21    22    1
    35    10    11    1
    36    31    34    1
    37    20    23    1
