@<TRIPOS>MOLECULE
1
 13 13 0 0 0
SMALL
GASTEIGER

@<TRIPOS>ATOM
      1 O           0.1652    3.2237    1.6070 O.3     1  UNL1       -0.3798
      2 C           0.4648    3.9207    0.3896 C.3     1  UNL1        0.0477
      3 H           1.4995    3.7049    0.1212 H       1  UNL1        0.0560
      4 H           0.3573    5.0007    0.5565 H       1  UNL1        0.0560
      5 C          -0.5367    3.4279   -0.6715 C.3     1  UNL1       -0.0274
      6 H          -0.0375    2.8740   -1.4640 H       1  UNL1        0.0288
      7 H          -1.0584    4.2712   -1.1200 H       1  UNL1        0.0288
      8 C          -1.5026    2.5386    0.1218 C.3     1  UNL1       -0.0274
      9 H          -2.5409    2.6773   -0.1677 H       1  UNL1        0.0288
     10 H          -1.2434    1.4856    0.0056 H       1  UNL1        0.0288
     11 C          -1.2418    2.9872    1.5561 C.3     1  UNL1        0.0477
     12 H          -1.7841    3.9189    1.7671 H       1  UNL1        0.0560
     13 H          -1.4959    2.2396    2.3080 H       1  UNL1        0.0560
@<TRIPOS>BOND
     1     6     5    1
     2     7     5    1
     3     5     8    1
     4     5     2    1
     5     9     8    1
     6    10     8    1
     7     3     2    1
     8     8    11    1
     9     2     4    1
    10     2     1    1
    11    11     1    1
    12    11    12    1
    13    11    13    1
