@<TRIPOS>MOLECULE
1
 13 13 0 0 0
SMALL
GASTEIGER

@<TRIPOS>ATOM
      1 O           2.5196    4.9317    5.9326 O.3     1  UNL1       -0.3798
      2 C           1.8979    4.9122    7.2245 C.3     1  UNL1        0.0477
      3 H           2.5780    4.4280    7.9387 H       1  UNL1        0.0560
      4 H           0.9747    4.3320    7.1583 H       1  UNL1        0.0560
      5 C           1.6674    6.3681    7.6073 C.3     1  UNL1       -0.0274
      6 H           0.7727    6.7492    7.1143 H       1  UNL1        0.0288
      7 H           1.5734    6.5022    8.6819 H       1  UNL1        0.0288
      8 C           2.9143    7.0213    7.0199 C.3     1  UNL1       -0.0274
      9 H           3.7720    6.8625    7.6749 H       1  UNL1        0.0288
     10 H           2.7951    8.0864    6.8426 H       1  UNL1        0.0288
     11 C           3.0806    6.2472    5.7159 C.3     1  UNL1        0.0477
     12 H           2.5236    6.7343    4.9063 H       1  UNL1        0.0560
     13 H           4.1258    6.1371    5.4139 H       1  UNL1        0.0560
@<TRIPOS>BOND
     1    12    11    1
     2    13    11    1
     3    11     1    1
     4    11     8    1
     5     1     2    1
     6    10     8    1
     7     8     5    1
     8     8     9    1
     9     6     5    1
    10     4     2    1
    11     2     5    1
    12     2     3    1
    13     5     7    1
