@<TRIPOS>MOLECULE
2
 35 37 0 0 0
SMALL
GASTEIGER

@<TRIPOS>ATOM
      1 SI          2.2999    2.5403   23.4406 Si      1  UNL1        0.0000
      2 O           2.5835    4.1062   23.1031 O.3     1  UNL1        0.0000
      3 C           3.8325    1.7477   22.6423 C.ar    1  UNL1        0.0000
      4 C           0.6180    2.0883   22.6872 C.ar    1  UNL1        0.0000
      5 C           2.3464    2.3503   25.3211 C.ar    1  UNL1        0.0000
      6 C           4.9677    2.5535   22.5606 C.ar    1  UNL1        0.0000
      7 H           4.9472    3.5558   23.0005 H       1  UNL1        0.0000
      8 C           1.5358    1.4323   25.9781 C.ar    1  UNL1        0.0000
      9 H           0.8568    0.8223   25.4003 H       1  UNL1        0.0000
     10 C           3.2260    3.1190   26.0788 C.ar    1  UNL1        0.0000
     11 H           3.8732    3.8261   25.5760 H       1  UNL1        0.0000
     12 C           6.1268    2.0984   21.9583 C.ar    1  UNL1        0.0000
     13 H           6.9940    2.7399   21.9089 H       1  UNL1        0.0000
     14 C          -1.7920    2.2419   22.7946 C.ar    1  UNL1        0.0000
     15 H          -2.6824    2.5612   23.3171 H       1  UNL1        0.0000
     16 C           0.4940    1.4409   21.4609 C.ar    1  UNL1        0.0000
     17 H           1.3813    1.1359   20.9265 H       1  UNL1        0.0000
     18 C          -0.5465    2.4830   23.3440 C.ar    1  UNL1        0.0000
     19 H          -0.4703    2.9926   24.2945 H       1  UNL1        0.0000
     20 C           2.4565    2.0794   28.0954 C.ar    1  UNL1        0.0000
     21 H           2.4948    1.9771   29.1703 H       1  UNL1        0.0000
     22 C           1.5869    1.2970   27.3539 C.ar    1  UNL1        0.0000
     23 H           0.9475    0.5810   27.8501 H       1  UNL1        0.0000
     24 C          -0.7509    1.1974   20.9086 C.ar    1  UNL1        0.0000
     25 H          -0.8261    0.6997   19.9525 H       1  UNL1        0.0000
     26 C           3.8976    0.4608   22.1207 C.ar    1  UNL1        0.0000
     27 H           3.0356   -0.1855   22.1959 H       1  UNL1        0.0000
     28 C           3.2795    2.9906   27.4547 C.ar    1  UNL1        0.0000
     29 H           3.9643    3.5986   28.0287 H       1  UNL1        0.0000
     30 C           5.0503    0.0050   21.5048 C.ar    1  UNL1        0.0000
     31 H           5.0803   -0.9927   21.0907 H       1  UNL1        0.0000
     32 C           6.1635    0.8239   21.4170 C.ar    1  UNL1        0.0000
     33 H           7.0625    0.4670   20.9352 H       1  UNL1        0.0000
     34 C          -1.8971    1.5981   21.5731 C.ar    1  UNL1        0.0000
     35 H          -2.8691    1.4133   21.1388 H       1  UNL1        0.0000
@<TRIPOS>BOND
     1    25    24    1
     2    24    16   ar
     3    24    34   ar
     4    17    16    1
     5    33    32    1
     6    31    30    1
     7    35    34    1
     8    32    30   ar
     9    32    12   ar
    10    16     4   ar
    11    30    26   ar
    12    34    14   ar
    13    13    12    1
    14    12     6   ar
    15    26    27    1
    16    26     3   ar
    17     6     3   ar
    18     6     7    1
    19     3     1    1
    20     4    18   ar
    21     4     1    1
    22    14    15    1
    23    14    18   ar
    24     2     1    1
    25    18    19    1
    26     1     5    1
    27     5     8   ar
    28     5    10   ar
    29     9     8    1
    30    11    10    1
    31     8    22   ar
    32    10    28   ar
    33    22    23    1
    34    22    20   ar
    35    28    29    1
    36    28    20   ar
    37    20    21    1
