@<TRIPOS>MOLECULE
1
 12 12 0 0 0
SMALL
GASTEIGER

@<TRIPOS>ATOM
      1 O           2.8424    4.1639    6.7153 O.3     1  UNL1       -0.2879
      2 C           3.2424    3.3145    7.6187 C.ar    1  UNL1        0.1790
      3 C           4.3467    2.4642    7.4010 C.ar    1  UNL1       -0.0149
      4 H           4.8484    2.5073    6.4429 H       1  UNL1        0.0656
      5 C           4.7823    1.5958    8.3760 C.ar    1  UNL1       -0.0581
      6 H           5.6285    0.9530    8.1718 H       1  UNL1        0.0619
      7 C           4.1452    1.5333    9.6062 C.ar    1  UNL1       -0.0615
      8 H           4.4959    0.8565   10.3720 H       1  UNL1        0.0618
      9 C           3.0341    2.3299    9.8292 C.ar    1  UNL1       -0.0581
     10 H           2.5108    2.2711   10.7746 H       1  UNL1        0.0619
     11 C           2.5801    3.1967    8.8583 C.ar    1  UNL1       -0.0149
     12 H           1.7037    3.8043    9.0405 H       1  UNL1        0.0656
@<TRIPOS>BOND
     1     4     3    1
     2     1     2    1
     3     3     2   ar
     4     3     5   ar
     5     2    11   ar
     6     6     5    1
     7     5     7   ar
     8    11    12    1
     9    11     9   ar
    10     7     9   ar
    11     7     8    1
    12     9    10    1
