@<TRIPOS>MOLECULE
2
 18 18 0 0 0
SMALL
GASTEIGER

@<TRIPOS>ATOM
      1 S           9.2697    9.9285    2.9363 S.3     1  UNL1        0.0409
      2 O           9.0924    9.5269    4.3547 O.3     1  UNL1       -0.0650
      3 O           8.1859    9.4206    2.1093 O.3     1  UNL1       -0.0650
      4 O           9.5867   11.3244    2.7813 O.3     1  UNL1       -0.0650
      5 C          10.7548    9.0613    2.4200 C.ar    1  UNL1        0.0956
      6 C          11.0014    8.9171    1.0699 C.ar    1  UNL1       -0.0361
      7 H          10.2545    9.2628    0.3730 H       1  UNL1        0.0637
      8 C          12.1906    8.3494    0.6471 C.ar    1  UNL1       -0.0570
      9 H          12.4050    8.2638   -0.4093 H       1  UNL1        0.0621
     10 C          13.1338    7.9075    1.5709 C.ar    1  UNL1       -0.0503
     11 C          12.8630    8.0526    2.9265 C.ar    1  UNL1       -0.0570
     12 H          13.5938    7.7228    3.6529 H       1  UNL1        0.0621
     13 C          11.6825    8.6410    3.3499 C.ar    1  UNL1       -0.0361
     14 H          11.4707    8.7872    4.3985 H       1  UNL1        0.0637
     15 C          14.4321    7.3193    1.1037 C.3     1  UNL1       -0.0397
     16 H          14.8875    6.7059    1.8779 H       1  UNL1        0.0278
     17 H          15.1293    8.1192    0.8541 H       1  UNL1        0.0278
     18 H          14.2867    6.7145    0.2110 H       1  UNL1        0.0278
@<TRIPOS>BOND
     1     9     8    1
     2    18    15    1
     3     7     6    1
     4     8     6   ar
     5     8    10   ar
     6    17    15    1
     7     6     5   ar
     8    15    10    1
     9    15    16    1
    10    10    11   ar
    11     3     1    1
    12     5     1    1
    13     5    13   ar
    14     4     1    1
    15    11    13   ar
    16    11    12    1
    17     1     2    1
    18    13    14    1
