@<TRIPOS>MOLECULE
1
 35 37 0 0 0
SMALL
GASTEIGER

@<TRIPOS>ATOM
      1 O           1.7181   -1.0124    4.7229 O.3     1  UNL1        0.0000
      2 SI          1.1249   -0.7681    6.1810 Si      1  UNL1        0.0000
      3 C          -0.0293   -2.2224    6.6158 C.ar    1  UNL1        0.0000
      4 C          -0.4828   -3.0445    5.5864 C.ar    1  UNL1        0.0000
      5 H          -0.1533   -2.8432    4.5711 H       1  UNL1        0.0000
      6 C          -1.3303   -4.1071    5.8442 C.ar    1  UNL1        0.0000
      7 H          -1.6701   -4.7357    5.0331 H       1  UNL1        0.0000
      8 C          -1.7422   -4.3667    7.1411 C.ar    1  UNL1        0.0000
      9 H          -2.4059   -5.1961    7.3460 H       1  UNL1        0.0000
     10 C          -1.2957   -3.5632    8.1767 C.ar    1  UNL1        0.0000
     11 H          -1.6091   -3.7668    9.1923 H       1  UNL1        0.0000
     12 C          -0.4464   -2.5034    7.9123 C.ar    1  UNL1        0.0000
     13 H          -0.0909   -1.8891    8.7276 H       1  UNL1        0.0000
     14 C           2.5925   -0.6749    7.3934 C.ar    1  UNL1        0.0000
     15 C           3.8523   -1.0803    6.9578 C.ar    1  UNL1        0.0000
     16 H           3.9687   -1.4253    5.9357 H       1  UNL1        0.0000
     17 C           4.9463   -1.0390    7.8034 C.ar    1  UNL1        0.0000
     18 H           5.9154   -1.3564    7.4454 H       1  UNL1        0.0000
     19 C           4.7996   -0.5905    9.1055 C.ar    1  UNL1        0.0000
     20 H           5.6526   -0.5579    9.7702 H       1  UNL1        0.0000
     21 C           3.5558   -0.1774    9.5528 C.ar    1  UNL1        0.0000
     22 H           3.4375    0.1806   10.5673 H       1  UNL1        0.0000
     23 C           2.4662   -0.2194    8.7013 C.ar    1  UNL1        0.0000
     24 H           1.5021    0.1181    9.0547 H       1  UNL1        0.0000
     25 C           0.1332    0.8610    6.1824 C.ar    1  UNL1        0.0000
     26 C          -0.6843    1.2553    7.2365 C.ar    1  UNL1        0.0000
     27 H          -0.7850    0.6110    8.0988 H       1  UNL1        0.0000
     28 C          -1.3802    2.4503    7.1941 C.ar    1  UNL1        0.0000
     29 H          -2.0102    2.7409    8.0246 H       1  UNL1        0.0000
     30 C          -1.2727    3.2742    6.0861 C.ar    1  UNL1        0.0000
     31 H          -1.8158    4.2092    6.0514 H       1  UNL1        0.0000
     32 C          -0.4728    2.8922    5.0218 C.ar    1  UNL1        0.0000
     33 H          -0.3919    3.5272    4.1507 H       1  UNL1        0.0000
     34 C           0.2228    1.6971    5.0715 C.ar    1  UNL1        0.0000
     35 H           0.8451    1.3933    4.2337 H       1  UNL1        0.0000
@<TRIPOS>BOND
     1    33    32    1
     2    35    34    1
     3     5     4    1
     4     1     2    1
     5    32    34   ar
     6    32    30   ar
     7     7     6    1
     8    34    25   ar
     9     4     6   ar
    10     4     3   ar
    11     6     8   ar
    12    16    15    1
    13    31    30    1
    14    30    28   ar
    15     2    25    1
    16     2     3    1
    17     2    14    1
    18    25    26   ar
    19     3    12   ar
    20    15    14   ar
    21    15    17   ar
    22     8     9    1
    23     8    10   ar
    24    28    26   ar
    25    28    29    1
    26    26    27    1
    27    14    23   ar
    28    18    17    1
    29    17    19   ar
    30    12    10   ar
    31    12    13    1
    32    10    11    1
    33    23    24    1
    34    23    21   ar
    35    19    21   ar
    36    19    20    1
    37    21    22    1
