@<TRIPOS>MOLECULE
1
 37 38 0 0 0
SMALL
GASTEIGER

@<TRIPOS>ATOM
      1 O           4.6140    9.1040    0.5306 O.3     1  UNL1        0.0000
      2 SI          3.1755    8.5228    0.1380 Si      1  UNL1        0.0000
      3 C           3.3690    6.6337    0.0150 C.ar    1  UNL1        0.0000
      4 C           4.6009    6.0699    0.3389 C.ar    1  UNL1        0.0000
      5 H           5.4181    6.7240    0.6324 H       1  UNL1        0.0000
      6 C           4.7967    4.7018    0.2907 C.ar    1  UNL1        0.0000
      7 H           5.7611    4.2858    0.5453 H       1  UNL1        0.0000
      8 C           3.7570    3.8670   -0.0836 C.ar    1  UNL1        0.0000
      9 H           3.9051    2.7963   -0.1221 H       1  UNL1        0.0000
     10 C           2.5256    4.4097   -0.4098 C.ar    1  UNL1        0.0000
     11 H           1.7097    3.7622   -0.7030 H       1  UNL1        0.0000
     12 C           2.3380    5.7794   -0.3598 C.ar    1  UNL1        0.0000
     13 H           1.3724    6.1914   -0.6164 H       1  UNL1        0.0000
     14 C           2.6800    9.3432   -1.5065 C.ar    1  UNL1        0.0000
     15 C           1.5516    8.9799   -2.2336 C.ar    1  UNL1        0.0000
     16 H           0.9266    8.1738   -1.8775 H       1  UNL1        0.0000
     17 C           1.2165    9.6315   -3.4071 C.ar    1  UNL1        0.0000
     18 H           0.3338    9.3345   -3.9579 H       1  UNL1        0.0000
     19 C           2.0099   10.6648   -3.8766 C.ar    1  UNL1        0.0000
     20 H           1.7477   11.1763   -4.7928 H       1  UNL1        0.0000
     21 C           3.1398   11.0383   -3.1682 C.ar    1  UNL1        0.0000
     22 H           3.7647   11.8429   -3.5286 H       1  UNL1        0.0000
     23 C           3.4682   10.3823   -1.9959 C.ar    1  UNL1        0.0000
     24 H           4.3551   10.6771   -1.4408 H       1  UNL1        0.0000
     25 C           1.9930    9.0481    1.5813 C.3     1  UNL1        0.0000
     26 C           0.5376    8.6615    1.3241 C.3     1  UNL1        0.0000
     27 H           0.4388    7.5822    1.2274 H       1  UNL1        0.0000
     28 H           0.1724    9.1268    0.4107 H       1  UNL1        0.0000
     29 H          -0.0950    8.9880    2.1504 H       1  UNL1        0.0000
     30 C           2.0899   10.5673    1.7469 C.3     1  UNL1        0.0000
     31 H           1.5040   10.9003    2.6044 H       1  UNL1        0.0000
     32 H           1.7231   11.0787    0.8579 H       1  UNL1        0.0000
     33 H           3.1302   10.8663    1.9072 H       1  UNL1        0.0000
     34 C           2.4756    8.3822    2.8727 C.3     1  UNL1        0.0000
     35 H           1.8794    8.7142    3.7236 H       1  UNL1        0.0000
     36 H           3.5191    8.6416    3.0652 H       1  UNL1        0.0000
     37 H           2.4015    7.2978    2.8016 H       1  UNL1        0.0000
@<TRIPOS>BOND
     1    20    19    1
     2    18    17    1
     3    19    17   ar
     4    19    21   ar
     5    22    21    1
     6    17    15   ar
     7    21    23   ar
     8    15    16    1
     9    15    14   ar
    10    23    14   ar
    11    23    24    1
    12    14     2    1
    13    11    10    1
    14    13    12    1
    15    10    12   ar
    16    10     8   ar
    17    12     3   ar
    18     9     8    1
    19     8     6   ar
    20     3     2    1
    21     3     4   ar
    22     2     1    1
    23     2    25    1
    24     6     4   ar
    25     6     7    1
    26     4     5    1
    27    28    26    1
    28    32    30    1
    29    27    26    1
    30    26    25    1
    31    26    29    1
    32    25    30    1
    33    25    34    1
    34    30    33    1
    35    30    31    1
    36    37    34    1
    37    34    36    1
    38    34    35    1
