@<TRIPOS>MOLECULE
1
 37 38 0 0 0
SMALL
GASTEIGER

@<TRIPOS>ATOM
      1 O           3.5199    5.4232   10.7376 O.3     1  UNL1        0.0000
      2 SI          4.8034    6.2946   10.3735 Si      1  UNL1        0.0000
      3 C           6.1517    5.8726   11.6997 C.3     1  UNL1        0.0000
      4 C           5.5734    6.2232   13.0733 C.3     1  UNL1        0.0000
      5 H           5.4022    7.2956   13.1598 H       1  UNL1        0.0000
      6 H           6.2578    5.9178   13.8665 H       1  UNL1        0.0000
      7 H           4.6188    5.7062   13.2226 H       1  UNL1        0.0000
      8 C           7.4641    6.6313   11.4996 C.3     1  UNL1        0.0000
      9 H           8.1606    6.4089   12.3091 H       1  UNL1        0.0000
     10 H           7.2888    7.7053   11.4845 H       1  UNL1        0.0000
     11 H           7.9332    6.3434   10.5614 H       1  UNL1        0.0000
     12 C           6.4177    4.3661   11.6577 C.3     1  UNL1        0.0000
     13 H           5.4871    3.8254   11.8411 H       1  UNL1        0.0000
     14 H           7.1402    4.0805   12.4239 H       1  UNL1        0.0000
     15 H           6.8085    4.0662   10.6860 H       1  UNL1        0.0000
     16 C           5.3073    5.8195    8.6002 C.ar    1  UNL1        0.0000
     17 C           6.4335    6.3243    7.9604 C.ar    1  UNL1        0.0000
     18 H           7.0701    7.0255    8.4800 H       1  UNL1        0.0000
     19 C           6.7579    5.9439    6.6701 C.ar    1  UNL1        0.0000
     20 H           7.6402    6.3485    6.1914 H       1  UNL1        0.0000
     21 C           5.9540    5.0446    5.9904 C.ar    1  UNL1        0.0000
     22 H           6.2061    4.7458    4.9816 H       1  UNL1        0.0000
     23 C           4.8263    4.5320    6.6097 C.ar    1  UNL1        0.0000
     24 H           4.1927    3.8312    6.0839 H       1  UNL1        0.0000
     25 C           4.5104    4.9176    7.8997 C.ar    1  UNL1        0.0000
     26 H           3.6272    4.5212    8.3850 H       1  UNL1        0.0000
     27 C           4.3367    8.1368   10.5153 C.ar    1  UNL1        0.0000
     28 C           5.0560    9.1687    9.9220 C.ar    1  UNL1        0.0000
     29 H           5.9148    8.9320    9.3109 H       1  UNL1        0.0000
     30 C           4.6866   10.4911   10.0947 C.ar    1  UNL1        0.0000
     31 H           5.2602   11.2799    9.6254 H       1  UNL1        0.0000
     32 C           3.5822   10.8057   10.8683 C.ar    1  UNL1        0.0000
     33 H           3.2926   11.8392   11.0053 H       1  UNL1        0.0000
     34 C           2.8503    9.7910   11.4630 C.ar    1  UNL1        0.0000
     35 H           1.9857   10.0306   12.0660 H       1  UNL1        0.0000
     36 C           3.2263    8.4713   11.2881 C.ar    1  UNL1        0.0000
     37 H           2.6568    7.6751   11.7557 H       1  UNL1        0.0000
@<TRIPOS>BOND
     1    22    21    1
     2    21    23   ar
     3    21    19   ar
     4    24    23    1
     5    20    19    1
     6    23    25   ar
     7    19    17   ar
     8    25    26    1
     9    25    16   ar
    10    17    18    1
    11    17    16   ar
    12    16     2    1
    13    29    28    1
    14    31    30    1
    15    28    30   ar
    16    28    27   ar
    17    30    32   ar
    18     2    27    1
    19     2     1    1
    20     2     3    1
    21    27    36   ar
    22    11     8    1
    23    15    12    1
    24    32    33    1
    25    32    34   ar
    26    36    34   ar
    27    36    37    1
    28    34    35    1
    29    10     8    1
    30     8     3    1
    31     8     9    1
    32    12     3    1
    33    12    13    1
    34    12    14    1
    35     3     4    1
    36     4     5    1
    37     4     7    1
    38     4     6    1
