@<TRIPOS>MOLECULE
1
 37 38 0 0 0
SMALL
GASTEIGER

@<TRIPOS>ATOM
      1 O           4.8057    4.2722   10.3425 O.3     1  UNL1        0.0000
      2 SI          4.3554    3.6997   11.7533 Si      1  UNL1        0.0000
      3 C           3.5180    5.1445   12.7417 C.3     1  UNL1        0.0000
      4 C           2.3305    5.6457   11.9158 C.3     1  UNL1        0.0000
      5 H           1.8829    6.5274   12.3777 H       1  UNL1        0.0000
      6 H           1.5646    4.8750   11.8328 H       1  UNL1        0.0000
      7 H           2.6628    5.9124   10.9090 H       1  UNL1        0.0000
      8 C           3.0333    4.7423   14.1356 C.3     1  UNL1        0.0000
      9 H           3.8663    4.4024   14.7477 H       1  UNL1        0.0000
     10 H           2.3020    3.9391   14.0699 H       1  UNL1        0.0000
     11 H           2.5649    5.5903   14.6374 H       1  UNL1        0.0000
     12 C           4.5386    6.2787   12.8651 C.3     1  UNL1        0.0000
     13 H           4.9113    6.5535   11.8746 H       1  UNL1        0.0000
     14 H           5.3852    5.9720   13.4786 H       1  UNL1        0.0000
     15 H           4.0842    7.1601   13.3209 H       1  UNL1        0.0000
     16 C           3.0888    2.3096   11.4279 C.ar    1  UNL1        0.0000
     17 C           2.5717    2.2049   10.1380 C.ar    1  UNL1        0.0000
     18 H           2.9334    2.8914    9.3792 H       1  UNL1        0.0000
     19 C           1.6193    1.2525    9.8236 C.ar    1  UNL1        0.0000
     20 H           1.2297    1.1884    8.8171 H       1  UNL1        0.0000
     21 C           1.1614    0.3813   10.7988 C.ar    1  UNL1        0.0000
     22 H           0.4154   -0.3645   10.5578 H       1  UNL1        0.0000
     23 C           1.6639    0.4703   12.0857 C.ar    1  UNL1        0.0000
     24 H           1.3102   -0.2076   12.8519 H       1  UNL1        0.0000
     25 C           2.6164    1.4267   12.3923 C.ar    1  UNL1        0.0000
     26 H           2.9988    1.4860   13.4008 H       1  UNL1        0.0000
     27 C           5.9275    3.1003   12.6537 C.ar    1  UNL1        0.0000
     28 C           5.9323    2.3933   13.8508 C.ar    1  UNL1        0.0000
     29 H           4.9942    2.1248   14.3140 H       1  UNL1        0.0000
     30 C           7.1179    2.0264   14.4637 C.ar    1  UNL1        0.0000
     31 H           7.0986    1.4759   15.3956 H       1  UNL1        0.0000
     32 C           8.3297    2.3649   13.8862 C.ar    1  UNL1        0.0000
     33 H           9.2573    2.0803   14.3649 H       1  UNL1        0.0000
     34 C           8.3459    3.0708   12.6943 C.ar    1  UNL1        0.0000
     35 H           9.2893    3.3399   12.2397 H       1  UNL1        0.0000
     36 C           7.1567    3.4334   12.0881 C.ar    1  UNL1        0.0000
     37 H           7.1621    3.9892   11.1560 H       1  UNL1        0.0000
@<TRIPOS>BOND
     1    20    19    1
     2    18    17    1
     3    19    17   ar
     4    19    21   ar
     5    17    16   ar
     6     1     2    1
     7    22    21    1
     8    21    23   ar
     9     7     4    1
    10    37    36    1
    11    16     2    1
    12    16    25   ar
    13     2    27    1
    14     2     3    1
    15     6     4    1
    16    13    12    1
    17     4     5    1
    18     4     3    1
    19    23    25   ar
    20    23    24    1
    21    36    27   ar
    22    36    34   ar
    23    35    34    1
    24    25    26    1
    25    27    28   ar
    26    34    32   ar
    27     3    12    1
    28     3     8    1
    29    12    15    1
    30    12    14    1
    31    28    29    1
    32    28    30   ar
    33    32    33    1
    34    32    30   ar
    35    10     8    1
    36     8    11    1
    37     8     9    1
    38    30    31    1
