@<TRIPOS>MOLECULE
1
 23 22 0 0 0
SMALL
GASTEIGER

@<TRIPOS>ATOM
      1 O          14.4519    6.2746   33.1693 O.3     1  UNL1        0.0000
      2 SI         15.9600    6.6412   32.8078 Si      1  UNL1        0.0000
      3 C          15.9714    7.9970   31.4471 C.3     1  UNL1        0.0000
      4 H          15.7248    8.9715   31.8599 H       1  UNL1        0.0000
      5 H          15.1923    7.7330   30.7254 H       1  UNL1        0.0000
      6 H          16.9129    8.0906   30.9155 H       1  UNL1        0.0000
      7 C          16.8566    7.2996   34.3675 C.3     1  UNL1        0.0000
      8 H          16.9694    6.5283   35.1209 H       1  UNL1        0.0000
      9 H          16.3006    8.1161   34.8142 H       1  UNL1        0.0000
     10 H          17.8439    7.6670   34.1135 H       1  UNL1        0.0000
     11 C          16.8477    5.0322   32.1707 C.3     1  UNL1        0.0000
     12 C          16.3627    3.8638   33.0330 C.3     1  UNL1        0.0000
     13 H          15.2742    3.7785   32.9370 H       1  UNL1        0.0000
     14 H          16.6102    4.0190   34.0819 H       1  UNL1        0.0000
     15 H          16.8144    2.9250   32.7071 H       1  UNL1        0.0000
     16 C          16.4263    4.7507   30.7260 C.3     1  UNL1        0.0000
     17 H          15.3236    4.7052   30.6537 H       1  UNL1        0.0000
     18 H          16.8318    3.7943   30.3891 H       1  UNL1        0.0000
     19 H          16.7838    5.5293   30.0542 H       1  UNL1        0.0000
     20 C          18.3740    5.1206   32.2398 C.3     1  UNL1        0.0000
     21 H          18.7390    5.9481   31.6353 H       1  UNL1        0.0000
     22 H          18.8300    4.2001   31.8722 H       1  UNL1        0.0000
     23 H          18.7014    5.2793   33.2644 H       1  UNL1        0.0000
@<TRIPOS>BOND
     1    19    16    1
     2    18    16    1
     3    17    16    1
     4     5     3    1
     5    16    11    1
     6     6     3    1
     7     3     4    1
     8     3     2    1
     9    21    20    1
    10    22    20    1
    11    11    20    1
    12    11     2    1
    13    11    12    1
    14    20    23    1
    15    15    12    1
    16     2     1    1
    17     2     7    1
    18    13    12    1
    19    12    14    1
    20    10     7    1
    21     7     9    1
    22     7     8    1
