@<TRIPOS>MOLECULE
1
 35 37 0 0 0
SMALL
GASTEIGER

@<TRIPOS>ATOM
      1 O          10.5169    1.7388   18.1197 O.3     1  UNL1        0.0000
      2 SI         11.1267    2.0166   16.6710 Si      1  UNL1        0.0000
      3 C          11.5098    0.3368   15.8790 C.ar    1  UNL1        0.0000
      4 C          11.2991   -0.8054   16.6507 C.ar    1  UNL1        0.0000
      5 C          11.5629   -2.0622   16.1349 C.ar    1  UNL1        0.0000
      6 C          12.0395   -2.1972   14.8408 C.ar    1  UNL1        0.0000
      7 C          12.2531   -1.0707   14.0638 C.ar    1  UNL1        0.0000
      8 C          11.9895    0.1850   14.5815 C.ar    1  UNL1        0.0000
      9 H          12.1570    1.0627   13.9730 H       1  UNL1        0.0000
     10 H          12.6250   -1.1729   13.0539 H       1  UNL1        0.0000
     11 H          12.2446   -3.1786   14.4371 H       1  UNL1        0.0000
     12 H          11.3967   -2.9386   16.7440 H       1  UNL1        0.0000
     13 H          10.9262   -0.6932   17.6685 H       1  UNL1        0.0000
     14 C          12.7122    3.0644   16.8908 C.ar    1  UNL1        0.0000
     15 C          12.6712    4.4555   16.9115 C.ar    1  UNL1        0.0000
     16 C          13.8127    5.2055   17.1355 C.ar    1  UNL1        0.0000
     17 C          15.0258    4.5728   17.3488 C.ar    1  UNL1        0.0000
     18 C          15.0859    3.1893   17.3411 C.ar    1  UNL1        0.0000
     19 C          13.9397    2.4472   17.1157 C.ar    1  UNL1        0.0000
     20 H          13.9899    1.3680   17.1069 H       1  UNL1        0.0000
     21 H          16.0298    2.6898   17.5070 H       1  UNL1        0.0000
     22 H          15.9199    5.1562   17.5172 H       1  UNL1        0.0000
     23 H          13.7578    6.2856   17.1386 H       1  UNL1        0.0000
     24 H          11.7282    4.9588   16.7407 H       1  UNL1        0.0000
     25 C           9.8629    3.0570   15.7028 C.ar    1  UNL1        0.0000
     26 C           8.5366    3.0918   16.1228 C.ar    1  UNL1        0.0000
     27 C           7.5994    3.8765   15.4754 C.ar    1  UNL1        0.0000
     28 C           7.9744    4.6387   14.3814 C.ar    1  UNL1        0.0000
     29 C           9.2864    4.6047   13.9391 C.ar    1  UNL1        0.0000
     30 C          10.2181    3.8209   14.5964 C.ar    1  UNL1        0.0000
     31 H          11.2424    3.8036   14.2525 H       1  UNL1        0.0000
     32 H           9.5817    5.1927   13.0817 H       1  UNL1        0.0000
     33 H           7.2462    5.2537   13.8719 H       1  UNL1        0.0000
     34 H           6.5741    3.8925   15.8187 H       1  UNL1        0.0000
     35 H           8.2493    2.4827   16.9702 H       1  UNL1        0.0000
@<TRIPOS>BOND
     1    10     7    1
     2    32    29    1
     3    33    28    1
     4    29    28   ar
     5    29    30   ar
     6     9     8    1
     7     7     8   ar
     8     7     6   ar
     9    31    30    1
    10    28    27   ar
    11    11     6    1
    12     8     3   ar
    13    30    25   ar
    14     6     5   ar
    15    27    34    1
    16    27    26   ar
    17    25    26   ar
    18    25     2    1
    19     3     4   ar
    20     3     2    1
    21    26    35    1
    22     5     4   ar
    23     5    12    1
    24     4    13    1
    25     2    14    1
    26     2     1    1
    27    24    15    1
    28    14    15   ar
    29    14    19   ar
    30    15    16   ar
    31    20    19    1
    32    19    18   ar
    33    16    23    1
    34    16    17   ar
    35    18    17   ar
    36    18    21    1
    37    17    22    1
