@<TRIPOS>MOLECULE
2
 35 37 0 0 0
SMALL
GASTEIGER

@<TRIPOS>ATOM
      1 SI          9.5686    2.0159   23.0845 Si      1  UNL1        0.0000
      2 O          10.1789    1.7363   21.6364 O.3     1  UNL1        0.0000
      3 C           9.1853    0.3363   23.8758 C.ar    1  UNL1        0.0000
      4 C           9.3965   -0.8058   23.1041 C.ar    1  UNL1        0.0000
      5 C           9.1325   -2.0626   23.6196 C.ar    1  UNL1        0.0000
      6 C           8.6555   -2.1976   24.9136 C.ar    1  UNL1        0.0000
      7 C           8.4415   -1.0712   25.6906 C.ar    1  UNL1        0.0000
      8 C           8.7051    0.1845   25.1731 C.ar    1  UNL1        0.0000
      9 C           7.9836    3.0645   22.8636 C.ar    1  UNL1        0.0000
     10 C           8.0253    4.4555   22.8418 C.ar    1  UNL1        0.0000
     11 C           6.8839    5.2059   22.6183 C.ar    1  UNL1        0.0000
     12 C           5.6705    4.5738   22.4063 C.ar    1  UNL1        0.0000
     13 C           5.6097    3.1903   22.4149 C.ar    1  UNL1        0.0000
     14 C           6.7556    2.4478   22.6401 C.ar    1  UNL1        0.0000
     15 C          10.8331    3.0563   24.0516 C.ar    1  UNL1        0.0000
     16 C          12.1594    3.0899   23.6318 C.ar    1  UNL1        0.0000
     17 C          13.0970    3.8745   24.2788 C.ar    1  UNL1        0.0000
     18 C          12.7224    4.6374   25.3724 C.ar    1  UNL1        0.0000
     19 C          11.4103    4.6045   25.8145 C.ar    1  UNL1        0.0000
     20 C          10.4780    3.8212   25.1574 C.ar    1  UNL1        0.0000
     21 H           9.7691   -0.6934   22.0861 H       1  UNL1        0.0000
     22 H           9.2986   -2.9390   23.0105 H       1  UNL1        0.0000
     23 H           8.4503   -3.1791   25.3172 H       1  UNL1        0.0000
     24 H           8.0696   -1.1734   26.7005 H       1  UNL1        0.0000
     25 H           8.5378    1.0622   25.7815 H       1  UNL1        0.0000
     26 H           8.9685    4.9585   23.0126 H       1  UNL1        0.0000
     27 H           6.9392    6.2861   22.6150 H       1  UNL1        0.0000
     28 H           4.7765    5.1574   22.2381 H       1  UNL1        0.0000
     29 H           4.6655    2.6911   22.2495 H       1  UNL1        0.0000
     30 H           6.7050    1.3686   22.6492 H       1  UNL1        0.0000
     31 H          12.4462    2.4809   22.7842 H       1  UNL1        0.0000
     32 H          14.1223    3.8901   23.9353 H       1  UNL1        0.0000
     33 H          13.4509    5.2522   25.8817 H       1  UNL1        0.0000
     34 H          11.1153    5.1927   26.6720 H       1  UNL1        0.0000
     35 H           9.4539    3.8040   25.5016 H       1  UNL1        0.0000
@<TRIPOS>BOND
     1     2     1    1
     2    21     4    1
     3    28    12    1
     4    29    13    1
     5    12    13   ar
     6    12    11   ar
     7    13    14   ar
     8    27    11    1
     9    11    10   ar
    10    14    30    1
    11    14     9   ar
    12    31    16    1
    13    10     9   ar
    14    10    26    1
    15     9     1    1
    16    22     5    1
    17     1     3    1
    18     1    15    1
    19     4     5   ar
    20     4     3   ar
    21     5     6   ar
    22    16    15   ar
    23    16    17   ar
    24     3     8   ar
    25    32    17    1
    26    15    20   ar
    27    17    18   ar
    28     6    23    1
    29     6     7   ar
    30    20    35    1
    31    20    19   ar
    32     8     7   ar
    33     8    25    1
    34    18    19   ar
    35    18    33    1
    36     7    24    1
    37    19    34    1
