@<TRIPOS>MOLECULE
1
 13 13 0 0 0
SMALL
GASTEIGER

@<TRIPOS>ATOM
      1 O          13.4995    9.0419   16.8927 O.3     1  UNL1       -0.3798
      2 C          13.7096    9.1872   18.2985 C.3     1  UNL1        0.0477
      3 H          14.7606    8.9699   18.5288 H       1  UNL1        0.0560
      4 H          13.4853   10.2240   18.5554 H       1  UNL1        0.0560
      5 C          12.7799    8.1752   18.9949 C.3     1  UNL1       -0.0274
      6 H          11.9748    8.6754   19.5285 H       1  UNL1        0.0288
      7 H          13.3398    7.5713   19.7068 H       1  UNL1        0.0288
      8 C          12.2367    7.3216   17.8407 C.3     1  UNL1       -0.0274
      9 H          12.2342    6.2585   18.0673 H       1  UNL1        0.0288
     10 H          11.2239    7.6291   17.5826 H       1  UNL1        0.0288
     11 C          13.1905    7.6659   16.6969 C.3     1  UNL1        0.0477
     12 H          12.7480    7.5550   15.7060 H       1  UNL1        0.0560
     13 H          14.1108    7.0691   16.7673 H       1  UNL1        0.0560
@<TRIPOS>BOND
     1    12    11    1
     2    11    13    1
     3    11     1    1
     4    11     8    1
     5     1     2    1
     6    10     8    1
     7     8     9    1
     8     8     5    1
     9     2     3    1
    10     2     4    1
    11     2     5    1
    12     5     6    1
    13     5     7    1
