@<TRIPOS>MOLECULE
1
 13 13 0 0 0
SMALL
GASTEIGER

@<TRIPOS>ATOM
      1 O           7.2956    9.1090   16.7878 O.3     1  UNL1       -0.3798
      2 C           7.1405    9.2142   18.2059 C.3     1  UNL1        0.0477
      3 H           6.1067    8.9585   18.4726 H       1  UNL1        0.0560
      4 H           7.3483   10.2494   18.4810 H       1  UNL1        0.0560
      5 C           8.1252    8.2120   18.8365 C.3     1  UNL1       -0.0274
      6 H           8.9554    8.7225   19.3191 H       1  UNL1        0.0288
      7 H           7.6210    7.5970   19.5797 H       1  UNL1        0.0288
      8 C           8.6080    7.3733   17.6449 C.3     1  UNL1       -0.0274
      9 H           8.6164    6.3071   17.8560 H       1  UNL1        0.0288
     10 H           9.6091    7.6790   17.3430 H       1  UNL1        0.0288
     11 C           7.6019    7.7352   16.5528 C.3     1  UNL1        0.0477
     12 H           6.6875    7.1349   16.6587 H       1  UNL1        0.0560
     13 H           7.9970    7.6446   15.5405 H       1  UNL1        0.0560
@<TRIPOS>BOND
     1    13    11    1
     2    11    12    1
     3    11     1    1
     4    11     8    1
     5     1     2    1
     6    10     8    1
     7     8     9    1
     8     8     5    1
     9     2     3    1
    10     2     4    1
    11     2     5    1
    12     5     6    1
    13     5     7    1
