@<TRIPOS>MOLECULE
2
 14 13 0 0 0
SMALL
GASTEIGER

@<TRIPOS>ATOM
      1 SI         11.1170    3.7628   -1.2319 Si      1  UNL1        0.0000
      2 O          10.4836    3.7676    0.2263 O.3     1  UNL1        0.0000
      3 C          12.4744    2.4231   -1.4135 C.3     1  UNL1        0.0000
      4 C           9.7981    3.4278   -2.5892 C.3     1  UNL1        0.0000
      5 C          11.9303    5.4452   -1.6700 C.3     1  UNL1        0.0000
      6 H          12.0860    1.4305   -1.2041 H       1  UNL1        0.0000
      7 H          12.8821    2.4097   -2.4186 H       1  UNL1        0.0000
      8 H          13.2970    2.6013   -0.7279 H       1  UNL1        0.0000
      9 H           9.6410    2.3648   -2.7522 H       1  UNL1        0.0000
     10 H           8.8411    3.8675   -2.3225 H       1  UNL1        0.0000
     11 H          10.0989    3.8547   -3.5402 H       1  UNL1        0.0000
     12 H          12.3645    5.4165   -2.6637 H       1  UNL1        0.0000
     13 H          11.2040    6.2526   -1.6574 H       1  UNL1        0.0000
     14 H          12.7258    5.7056   -0.9774 H       1  UNL1        0.0000
@<TRIPOS>BOND
     1    11     4    1
     2     9     4    1
     3    12     5    1
     4     4    10    1
     5     4     1    1
     6     7     3    1
     7     5    13    1
     8     5     1    1
     9     5    14    1
    10     3     1    1
    11     3     6    1
    12     3     8    1
    13     1     2    1
