@<TRIPOS>MOLECULE
1
 13 13 0 0 0
SMALL
GASTEIGER

@<TRIPOS>ATOM
      1 O          -7.1116   -0.0953   -8.0429 O.3     1  UNL1       -0.3798
      2 C          -6.9994    1.3222   -7.9037 C.3     1  UNL1        0.0477
      3 C          -7.4034    1.8682   -9.2698 C.3     1  UNL1       -0.0274
      4 C          -6.7992    0.8321  -10.2259 C.3     1  UNL1       -0.0274
      5 C          -6.5714   -0.4042   -9.3356 C.3     1  UNL1        0.0477
      6 H          -7.6576    1.6397   -7.0923 H       1  UNL1        0.0560
      7 H          -5.9575    1.5870   -7.6718 H       1  UNL1        0.0560
      8 H          -7.0261    2.8730   -9.4419 H       1  UNL1        0.0288
      9 H          -8.4899    1.8791   -9.3498 H       1  UNL1        0.0288
     10 H          -7.4681    0.6152  -11.0561 H       1  UNL1        0.0288
     11 H          -5.8537    1.1830  -10.6369 H       1  UNL1        0.0288
     12 H          -7.0808   -1.3018   -9.6930 H       1  UNL1        0.0560
     13 H          -5.5003   -0.6183   -9.2327 H       1  UNL1        0.0560
@<TRIPOS>BOND
     1    10     4    1
     2    11     4    1
     3     4     5    1
     4     4     3    1
     5    12     5    1
     6     8     3    1
     7     9     3    1
     8     5    13    1
     9     5     1    1
    10     3     2    1
    11     1     2    1
    12     2     7    1
    13     2     6    1
