@<TRIPOS>MOLECULE
1
 13 13 0 0 0
SMALL
GASTEIGER

@<TRIPOS>ATOM
      1 O          -9.6061   -2.8947   -4.8872 O.3     1  UNL1       -0.3798
      2 C          -9.1628   -3.9701   -4.0480 C.3     1  UNL1        0.0477
      3 C          -9.8968   -3.8204   -2.7021 C.3     1  UNL1       -0.0274
      4 C         -10.8727   -2.6610   -2.9411 C.3     1  UNL1       -0.0274
      5 C         -10.9379   -2.5983   -4.4645 C.3     1  UNL1        0.0477
      6 H          -8.0765   -3.8911   -3.9670 H       1  UNL1        0.0560
      7 H          -9.4178   -4.9240   -4.5263 H       1  UNL1        0.0560
      8 H          -9.2085   -3.6014   -1.8885 H       1  UNL1        0.0288
      9 H         -10.4290   -4.7380   -2.4560 H       1  UNL1        0.0288
     10 H         -10.4634   -1.7272   -2.5564 H       1  UNL1        0.0288
     11 H         -11.8485   -2.8302   -2.4925 H       1  UNL1        0.0288
     12 H         -11.2089   -1.6137   -4.8510 H       1  UNL1        0.0560
     13 H         -11.6259   -3.3615   -4.8566 H       1  UNL1        0.0560
@<TRIPOS>BOND
     1     1     5    1
     2     1     2    1
     3    13     5    1
     4    12     5    1
     5     7     2    1
     6     5     4    1
     7     2     6    1
     8     2     3    1
     9     4     3    1
    10     4    10    1
    11     4    11    1
    12     3     9    1
    13     3     8    1
