@<TRIPOS>MOLECULE
1
 13 13 0 0 0
SMALL
GASTEIGER

@<TRIPOS>ATOM
      1 O          10.1839    5.9407    2.4474 O.3     1  UNL1       -0.3798
      2 C          11.4301    6.4748    2.0055 C.3     1  UNL1        0.0477
      3 C          11.0653    7.8154    1.3737 C.3     1  UNL1       -0.0274
      4 C           9.9383    8.3135    2.2875 C.3     1  UNL1       -0.0274
      5 C           9.4618    7.0419    3.0146 C.3     1  UNL1        0.0477
      6 H          12.0943    6.6226    2.8702 H       1  UNL1        0.0560
      7 H          11.8687    5.7625    1.3040 H       1  UNL1        0.0560
      8 H          10.6965    7.6507    0.3624 H       1  UNL1        0.0288
      9 H          11.9100    8.4990    1.3346 H       1  UNL1        0.0288
     10 H          10.3086    9.0453    3.0040 H       1  UNL1        0.0288
     11 H           9.1366    8.7774    1.7166 H       1  UNL1        0.0288
     12 H           9.6843    7.1006    4.0873 H       1  UNL1        0.0560
     13 H           8.3987    6.8326    2.8811 H       1  UNL1        0.0560
@<TRIPOS>BOND
     1     8     3    1
     2     7     2    1
     3     9     3    1
     4     3     2    1
     5     3     4    1
     6    11     4    1
     7     2     1    1
     8     2     6    1
     9     4    10    1
    10     4     5    1
    11     1     5    1
    12    13     5    1
    13     5    12    1
