@<TRIPOS>MOLECULE
1
 13 13 0 0 0
SMALL
GASTEIGER

@<TRIPOS>ATOM
      1 O           8.7508    1.4018    1.4122 O.3     1  UNL1       -0.3798
      2 C           8.7430    0.9082    0.0741 C.3     1  UNL1        0.0477
      3 C           7.4959    0.0263    0.0006 C.3     1  UNL1       -0.0274
      4 C           7.4134   -0.5637    1.4169 C.3     1  UNL1       -0.0274
      5 C           8.4281    0.2685    2.2210 C.3     1  UNL1        0.0477
      6 H           8.7369    1.7626   -0.6036 H       1  UNL1        0.0560
      7 H           9.6500    0.3125   -0.1031 H       1  UNL1        0.0560
      8 H           6.6193    0.6387   -0.2058 H       1  UNL1        0.0288
      9 H           7.5800   -0.7364   -0.7699 H       1  UNL1        0.0288
     10 H           7.6821   -1.6184    1.4304 H       1  UNL1        0.0288
     11 H           6.4132   -0.4568    1.8295 H       1  UNL1        0.0288
     12 H           9.3388   -0.3155    2.4058 H       1  UNL1        0.0560
     13 H           8.0348    0.6323    3.1704 H       1  UNL1        0.0560
@<TRIPOS>BOND
     1     9     3    1
     2     6     2    1
     3     8     3    1
     4     7     2    1
     5     3     2    1
     6     3     4    1
     7     2     1    1
     8     1     5    1
     9     4    10    1
    10     4    11    1
    11     4     5    1
    12     5    12    1
    13     5    13    1
