@<TRIPOS>MOLECULE
1
 7 6 0 0 0
SMALL
GASTEIGER

@<TRIPOS>ATOM
      1 O           2.9663    7.7917    3.5130 O.co2   1  UNL1       -0.2467
      2 O           1.6612    9.4552    4.1632 O.co2   1  UNL1       -0.2467
      3 C           2.5521    8.6081    4.3691 C.2     1  UNL1        0.3530
      4 C           3.2074    8.5726    5.7399 C.3     1  UNL1        0.0375
      5 H           3.9425    9.3742    5.7878 H       1  UNL1        0.0343
      6 H           3.7058    7.6196    5.8909 H       1  UNL1        0.0343
      7 H           2.4578    8.7415    6.5076 H       1  UNL1        0.0343
@<TRIPOS>BOND
     1     1     3   ar
     2     2     3   ar
     3     3     4    1
     4     4     5    1
     5     4     6    1
     6     4     7    1
