@<TRIPOS>MOLECULE
1
 13 13 0 0 0
SMALL
GASTEIGER

@<TRIPOS>ATOM
      1 O           1.4447    4.0757    8.8827 O.3     1  UNL1       -0.3798
      2 C           0.9738    5.0738    9.7954 C.3     1  UNL1        0.0477
      3 C           1.9229    5.0618   11.0093 C.3     1  UNL1       -0.0274
      4 C           3.0469    4.1084   10.5836 C.3     1  UNL1       -0.0274
      5 C           2.8601    4.0432    9.0704 C.3     1  UNL1        0.0477
      6 H          -0.0588    4.8343   10.0501 H       1  UNL1        0.0560
      7 H           0.9998    6.0525    9.2993 H       1  UNL1        0.0560
      8 H           1.4187    4.7108   11.9062 H       1  UNL1        0.0288
      9 H           2.3057    6.0625   11.2036 H       1  UNL1        0.0288
     10 H           4.0349    4.4675   10.8605 H       1  UNL1        0.0288
     11 H           2.8984    3.1190   11.0141 H       1  UNL1        0.0288
     12 H           3.3147    4.9222    8.5921 H       1  UNL1        0.0560
     13 H           3.2515    3.1331    8.6173 H       1  UNL1        0.0560
@<TRIPOS>BOND
     1    12     5    1
     2    13     5    1
     3     1     5    1
     4     1     2    1
     5     5     4    1
     6     7     2    1
     7     2     6    1
     8     2     3    1
     9     4    10    1
    10     4     3    1
    11     4    11    1
    12     3     9    1
    13     3     8    1
