@<TRIPOS>MOLECULE
1
 13 13 0 0 0
SMALL
GASTEIGER

@<TRIPOS>ATOM
      1 O           7.5439    3.6277    9.5037 O.3     1  UNL1       -0.3798
      2 C           8.2561    4.6684    8.8143 C.3     1  UNL1        0.0477
      3 C           9.0813    3.9800    7.7339 C.3     1  UNL1       -0.0274
      4 C           9.4448    2.6690    8.4252 C.3     1  UNL1       -0.0274
      5 C           8.1709    2.3640    9.2096 C.3     1  UNL1        0.0477
      6 H           8.9155    5.1791    9.5268 H       1  UNL1        0.0560
      7 H           7.5302    5.3838    8.4215 H       1  UNL1        0.0560
      8 H           9.9487    4.5675    7.4442 H       1  UNL1        0.0288
      9 H           8.4715    3.7895    6.8504 H       1  UNL1        0.0288
     10 H           9.6949    1.8726    7.7287 H       1  UNL1        0.0288
     11 H          10.2851    2.8163    9.1043 H       1  UNL1        0.0288
     12 H           7.4740    1.7705    8.6049 H       1  UNL1        0.0560
     13 H           8.3664    1.8426   10.1514 H       1  UNL1        0.0560
@<TRIPOS>BOND
     1     9     3    1
     2     8     3    1
     3    10     4    1
     4     3     4    1
     5     3     2    1
     6     7     2    1
     7     4    11    1
     8     4     5    1
     9    12     5    1
    10     2     1    1
    11     2     6    1
    12     5     1    1
    13     5    13    1
