@<TRIPOS>MOLECULE
1
 30 30 0 0 0
SMALL
GASTEIGER

@<TRIPOS>ATOM
      1 O          -2.8869    4.3897   10.0158 O.3     1  UNL1       -0.2873
      2 C          -3.4823    4.5974   11.1746 C.ar    1  UNL1        0.1858
      3 C          -3.8943    3.4962   11.9490 C.ar    1  UNL1        0.0021
      4 C          -4.5175    3.7282   13.1643 C.ar    1  UNL1       -0.0547
      5 C          -4.7409    5.0175   13.6111 C.ar    1  UNL1       -0.0610
      6 C          -4.3185    6.0973   12.8552 C.ar    1  UNL1       -0.0547
      7 C          -3.6775    5.9142   11.6415 C.ar    1  UNL1        0.0021
      8 C          -3.5716    2.1080   11.4469 C.3     1  UNL1       -0.0179
      9 C          -4.6213    1.0638   11.8234 C.3     1  UNL1       -0.0585
     10 C          -2.1883    1.7041   11.9735 C.3     1  UNL1       -0.0585
     11 C          -3.1840    7.0563   10.7825 C.3     1  UNL1       -0.0179
     12 C          -4.1751    7.2919    9.6357 C.3     1  UNL1       -0.0585
     13 C          -2.9531    8.3548   11.5506 C.3     1  UNL1       -0.0585
     14 H          -4.8324    2.8941   13.7718 H       1  UNL1        0.0622
     15 H          -5.2367    5.1825   14.5560 H       1  UNL1        0.0618
     16 H          -4.4870    7.0957   13.2264 H       1  UNL1        0.0622
     17 H          -3.5190    2.1589   10.3489 H       1  UNL1        0.0345
     18 H          -4.6003    0.8569   12.8904 H       1  UNL1        0.0235
     19 H          -4.4197    0.1316   11.2992 H       1  UNL1        0.0235
     20 H          -5.6190    1.4040   11.5537 H       1  UNL1        0.0235
     21 H          -1.9103    0.7216   11.5957 H       1  UNL1        0.0235
     22 H          -2.2017    1.6682   13.0616 H       1  UNL1        0.0235
     23 H          -1.4358    2.4309   11.6531 H       1  UNL1        0.0235
     24 H          -2.2168    6.7427   10.3537 H       1  UNL1        0.0345
     25 H          -3.7841    8.0333    8.9410 H       1  UNL1        0.0235
     26 H          -5.1274    7.6467   10.0277 H       1  UNL1        0.0235
     27 H          -4.3569    6.3625    9.0960 H       1  UNL1        0.0235
     28 H          -2.3167    8.1817   12.4147 H       1  UNL1        0.0235
     29 H          -3.8934    8.7894   11.8838 H       1  UNL1        0.0235
     30 H          -2.4598    9.0755   10.9023 H       1  UNL1        0.0235
@<TRIPOS>BOND
     1    25    12    1
     2    27    12    1
     3    12    26    1
     4    12    11    1
     5     1     2    1
     6    17     8    1
     7    24    11    1
     8    11    13    1
     9    11     7    1
    10    30    13    1
    11     2     7   ar
    12     2     3   ar
    13    19     9    1
    14     8     9    1
    15     8     3    1
    16     8    10    1
    17    13    29    1
    18    13    28    1
    19    20     9    1
    20    21    10    1
    21     7     6   ar
    22    23    10    1
    23     9    18    1
    24     3     4   ar
    25    10    22    1
    26     6    16    1
    27     6     5   ar
    28     4     5   ar
    29     4    14    1
    30     5    15    1
