@<TRIPOS>MOLECULE
2
 14 13 0 0 0
SMALL
GASTEIGER

@<TRIPOS>ATOM
      1 SI          2.0051   10.9344    2.8884 Si      1  UNL1        0.0000
      2 O           3.5286   11.3092    2.5679 O.3     1  UNL1        0.0000
      3 C           1.7901    9.0320    2.9443 C.3     1  UNL1        0.0000
      4 C           0.9457   11.6774    1.4669 C.3     1  UNL1        0.0000
      5 C           1.4871   11.6782    4.5731 C.3     1  UNL1        0.0000
      6 H           1.9046    8.5787    1.9631 H       1  UNL1        0.0000
      7 H           0.8018    8.7744    3.3097 H       1  UNL1        0.0000
      8 H           2.5168    8.5728    3.6082 H       1  UNL1        0.0000
      9 H           0.1939   12.3689    1.8344 H       1  UNL1        0.0000
     10 H           0.4276   10.9077    0.9031 H       1  UNL1        0.0000
     11 H           1.5979   12.2182    0.7788 H       1  UNL1        0.0000
     12 H           0.4115   11.6336    4.7065 H       1  UNL1        0.0000
     13 H           1.7966   12.7165    4.6581 H       1  UNL1        0.0000
     14 H           1.9429   11.1336    5.3940 H       1  UNL1        0.0000
@<TRIPOS>BOND
     1    11     4    1
     2    10     4    1
     3     4     9    1
     4     4     1    1
     5     6     3    1
     6     2     1    1
     7     1     3    1
     8     1     5    1
     9     3     7    1
    10     3     8    1
    11     5    13    1
    12     5    12    1
    13     5    14    1
