@<TRIPOS>MOLECULE
2
 41 40 0 0 0
SMALL
GASTEIGER

@<TRIPOS>ATOM
      1 SI         -1.4701   20.2194    2.9617 Si      1  UNL1        0.0000
      2 O          -0.3946   19.1458    3.5413 O.3     1  UNL1        0.0000
      3 C          -0.4542   21.8819    2.7258 C.3     1  UNL1        0.0000
      4 C          -1.1742   22.9072    1.8493 C.3     1  UNL1        0.0000
      5 H          -0.5968   23.8309    1.7998 H       1  UNL1        0.0000
      6 H          -2.1555   23.1425    2.2509 H       1  UNL1        0.0000
      7 H          -1.3031   22.5411    0.8352 H       1  UNL1        0.0000
      8 C           0.9143   21.5774    2.1093 C.3     1  UNL1        0.0000
      9 H           1.5162   22.4860    2.0602 H       1  UNL1        0.0000
     10 H           0.8236   21.1798    1.1049 H       1  UNL1        0.0000
     11 H           1.4425   20.8519    2.7236 H       1  UNL1        0.0000
     12 C          -0.1724   22.5362    4.0814 C.3     1  UNL1        0.0000
     13 H           0.5338   23.3592    3.9619 H       1  UNL1        0.0000
     14 H           0.2612   21.8120    4.7674 H       1  UNL1        0.0000
     15 H          -1.0787   22.9428    4.5194 H       1  UNL1        0.0000
     16 C          -2.8887   20.3802    4.3088 C.3     1  UNL1        0.0000
     17 C          -2.2808   20.5341    5.7066 C.3     1  UNL1        0.0000
     18 H          -3.0497   20.3767    6.4631 H       1  UNL1        0.0000
     19 H          -1.8723   21.5259    5.8594 H       1  UNL1        0.0000
     20 H          -1.4935   19.7958    5.8546 H       1  UNL1        0.0000
     21 C          -3.8390   21.5571    4.0747 C.3     1  UNL1        0.0000
     22 H          -4.6184   21.5620    4.8369 H       1  UNL1        0.0000
     23 H          -4.3184   21.4977    3.1029 H       1  UNL1        0.0000
     24 H          -3.3105   22.5045    4.1340 H       1  UNL1        0.0000
     25 C          -3.7085   19.0868    4.3510 C.3     1  UNL1        0.0000
     26 H          -4.4220   19.1212    5.1749 H       1  UNL1        0.0000
     27 H          -3.0419   18.2416    4.5114 H       1  UNL1        0.0000
     28 H          -4.2744   18.9394    3.4371 H       1  UNL1        0.0000
     29 C          -2.1446   19.4796    1.2699 C.3     1  UNL1        0.0000
     30 C          -2.3883   17.9746    1.4323 C.3     1  UNL1        0.0000
     31 H          -2.5213   17.5044    0.4575 H       1  UNL1        0.0000
     32 H          -3.2785   17.7797    2.0189 H       1  UNL1        0.0000
     33 H          -1.5446   17.5062    1.9330 H       1  UNL1        0.0000
     34 C          -1.1343   19.6400    0.1299 C.3     1  UNL1        0.0000
     35 H          -1.5120   19.1542   -0.7713 H       1  UNL1        0.0000
     36 H          -0.1867   19.1797    0.3859 H       1  UNL1        0.0000
     37 H          -0.9661   20.6855   -0.1098 H       1  UNL1        0.0000
     38 C          -3.4449   20.1427    0.8116 C.3     1  UNL1        0.0000
     39 H          -3.7520   19.7349   -0.1520 H       1  UNL1        0.0000
     40 H          -3.3168   21.2156    0.6987 H       1  UNL1        0.0000
     41 H          -4.2503   19.9658    1.5170 H       1  UNL1        0.0000
@<TRIPOS>BOND
     1    35    34    1
     2    39    38    1
     3    37    34    1
     4    34    36    1
     5    34    29    1
     6    31    30    1
     7    40    38    1
     8    38    29    1
     9    38    41    1
    10     7     4    1
    11    10     8    1
    12    29    30    1
    13    29     1    1
    14    30    33    1
    15    30    32    1
    16     5     4    1
    17     4     6    1
    18     4     3    1
    19     9     8    1
    20     8    11    1
    21     8     3    1
    22     3     1    1
    23     3    12    1
    24     1     2    1
    25     1    16    1
    26    23    21    1
    27    28    25    1
    28    13    12    1
    29    21    24    1
    30    21    16    1
    31    21    22    1
    32    12    15    1
    33    12    14    1
    34    16    25    1
    35    16    17    1
    36    25    27    1
    37    25    26    1
    38    17    20    1
    39    17    19    1
    40    17    18    1
