@<TRIPOS>MOLECULE
2
 41 40 0 0 0
SMALL
GASTEIGER

@<TRIPOS>ATOM
      1 SI          2.9963   16.1891    2.7573 Si      1  UNL1        0.0000
      2 O           2.0265   16.7127    3.9450 O.3     1  UNL1        0.0000
      3 C           1.8766   14.9741    1.6922 C.3     1  UNL1        0.0000
      4 C           0.4610   15.5467    1.5641 C.3     1  UNL1        0.0000
      5 H          -0.2007   14.8137    1.1009 H       1  UNL1        0.0000
      6 H           0.4402   16.4426    0.9536 H       1  UNL1        0.0000
      7 H           0.0559   15.7844    2.5517 H       1  UNL1        0.0000
      8 C           1.7186   13.6170    2.3847 C.3     1  UNL1        0.0000
      9 H           1.0005   13.0029    1.8395 H       1  UNL1        0.0000
     10 H           1.3406   13.7456    3.3960 H       1  UNL1        0.0000
     11 H           2.6574   13.0726    2.4194 H       1  UNL1        0.0000
     12 C           2.4276   14.7213    0.2876 C.3     1  UNL1        0.0000
     13 H           1.7938   14.0068   -0.2384 H       1  UNL1        0.0000
     14 H           3.4338   14.3142    0.3268 H       1  UNL1        0.0000
     15 H           2.4528   15.6348   -0.2993 H       1  UNL1        0.0000
     16 C           4.5541   15.2877    3.5295 C.3     1  UNL1        0.0000
     17 C           4.1405   14.3643    4.6782 C.3     1  UNL1        0.0000
     18 H           5.0260   13.9143    5.1296 H       1  UNL1        0.0000
     19 H           3.4919   13.5629    4.3425 H       1  UNL1        0.0000
     20 H           3.6218   14.9360    5.4403 H       1  UNL1        0.0000
     21 C           5.3083   14.4592    2.4881 C.3     1  UNL1        0.0000
     22 H           6.2088   14.0344    2.9328 H       1  UNL1        0.0000
     23 H           5.6070   15.0663    1.6387 H       1  UNL1        0.0000
     24 H           4.7012   13.6364    2.1225 H       1  UNL1        0.0000
     25 C           5.5410   16.2945    4.1280 C.3     1  UNL1        0.0000
     26 H           6.3286   15.7672    4.6679 H       1  UNL1        0.0000
     27 H           5.0370   16.9522    4.8301 H       1  UNL1        0.0000
     28 H           6.0184   16.8923    3.3573 H       1  UNL1        0.0000
     29 C           3.5057   17.8171    1.7839 C.3     1  UNL1        0.0000
     30 C           4.6473   17.6152    0.7855 C.3     1  UNL1        0.0000
     31 H           4.8340   18.5404    0.2390 H       1  UNL1        0.0000
     32 H           4.4055   16.8402    0.0636 H       1  UNL1        0.0000
     33 H           5.5693   17.3368    1.2879 H       1  UNL1        0.0000
     34 C           3.9134   18.9194    2.7690 C.3     1  UNL1        0.0000
     35 H           4.0051   19.8747    2.2497 H       1  UNL1        0.0000
     36 H           4.8675   18.7073    3.2392 H       1  UNL1        0.0000
     37 H           3.1668   19.0320    3.5555 H       1  UNL1        0.0000
     38 C           2.2988   18.3562    1.0116 C.3     1  UNL1        0.0000
     39 H           2.5362   19.3274    0.5742 H       1  UNL1        0.0000
     40 H           1.4436   18.4807    1.6770 H       1  UNL1        0.0000
     41 H           2.0204   17.6918    0.1980 H       1  UNL1        0.0000
@<TRIPOS>BOND
     1    15    12    1
     2    13    12    1
     3    32    30    1
     4    41    38    1
     5    31    30    1
     6    12    14    1
     7    12     3    1
     8    39    38    1
     9    30    33    1
    10    30    29    1
    11     6     4    1
    12    38    40    1
    13    38    29    1
    14     5     4    1
    15     4     3    1
    16     4     7    1
    17    23    21    1
    18     3     8    1
    19     3     1    1
    20    29     1    1
    21    29    34    1
    22     9     8    1
    23    24    21    1
    24    35    34    1
    25     8    11    1
    26     8    10    1
    27    21    22    1
    28    21    16    1
    29     1    16    1
    30     1     2    1
    31    34    36    1
    32    34    37    1
    33    28    25    1
    34    16    25    1
    35    16    17    1
    36    25    26    1
    37    25    27    1
    38    19    17    1
    39    17    18    1
    40    17    20    1
