@<TRIPOS>MOLECULE
2
 41 40 0 0 0
SMALL
GASTEIGER

@<TRIPOS>ATOM
      1 SI          2.2541   19.2601    7.6918 Si      1  UNL1        0.0000
      2 O           1.5980   18.7283    6.3112 O.3     1  UNL1        0.0000
      3 C           2.9390   17.6622    8.5889 C.3     1  UNL1        0.0000
      4 C           1.7803   16.8647    9.1924 C.3     1  UNL1        0.0000
      5 H           2.1330   15.8927    9.5395 H       1  UNL1        0.0000
      6 H           1.0079   16.6991    8.4444 H       1  UNL1        0.0000
      7 H           1.3477   17.3793   10.0443 H       1  UNL1        0.0000
      8 C           3.5971   16.7431    7.5573 C.3     1  UNL1        0.0000
      9 H           3.8029   15.7671    7.9985 H       1  UNL1        0.0000
     10 H           4.5356   17.1501    7.1971 H       1  UNL1        0.0000
     11 H           2.9228   16.6053    6.7114 H       1  UNL1        0.0000
     12 C           3.9446   17.9620    9.7011 C.3     1  UNL1        0.0000
     13 H           4.2498   17.0361   10.1893 H       1  UNL1        0.0000
     14 H           3.5113   18.6149   10.4533 H       1  UNL1        0.0000
     15 H           4.8369   18.4423    9.3097 H       1  UNL1        0.0000
     16 C           3.6585   20.5060    7.1176 C.3     1  UNL1        0.0000
     17 C           4.8568   19.7392    6.5497 C.3     1  UNL1        0.0000
     18 H           5.5760   20.4335    6.1124 H       1  UNL1        0.0000
     19 H           4.5334   19.0523    5.7727 H       1  UNL1        0.0000
     20 H           5.3711   19.1778    7.3242 H       1  UNL1        0.0000
     21 C           4.1674   21.3992    8.2491 C.3     1  UNL1        0.0000
     22 H           4.9791   22.0338    7.8921 H       1  UNL1        0.0000
     23 H           4.5415   20.8032    9.0767 H       1  UNL1        0.0000
     24 H           3.3800   22.0458    8.6248 H       1  UNL1        0.0000
     25 C           3.1330   21.3951    5.9840 C.3     1  UNL1        0.0000
     26 H           3.9538   21.9461    5.5232 H       1  UNL1        0.0000
     27 H           2.4082   22.1166    6.3440 H       1  UNL1        0.0000
     28 H           2.6558   20.7880    5.2167 H       1  UNL1        0.0000
     29 C           0.8138   20.1187    8.7028 C.3     1  UNL1        0.0000
     30 C           1.1746   20.3994   10.1629 C.3     1  UNL1        0.0000
     31 H           0.3473   20.9061   10.6601 H       1  UNL1        0.0000
     32 H           2.0532   21.0341   10.2359 H       1  UNL1        0.0000
     33 H           1.3755   19.4797   10.7041 H       1  UNL1        0.0000
     34 C           0.4403   21.4529    8.0512 C.3     1  UNL1        0.0000
     35 H          -0.4521   21.8658    8.5224 H       1  UNL1        0.0000
     36 H           0.2318   21.3072    6.9960 H       1  UNL1        0.0000
     37 H           1.2363   22.1836    8.1611 H       1  UNL1        0.0000
     38 C          -0.4425   19.2366    8.6639 C.3     1  UNL1        0.0000
     39 H          -1.3238   19.8297    8.9062 H       1  UNL1        0.0000
     40 H          -0.3834   18.4276    9.3830 H       1  UNL1        0.0000
     41 H          -0.5733   18.8011    7.6742 H       1  UNL1        0.0000
@<TRIPOS>BOND
     1    28    25    1
     2    26    25    1
     3    19    17    1
     4    25    27    1
     5    25    16    1
     6    18    17    1
     7     2     1    1
     8    17    16    1
     9    17    20    1
    10    11     8    1
    11    36    34    1
    12    16     1    1
    13    16    21    1
    14    10     8    1
    15     8     9    1
    16     8     3    1
    17    41    38    1
    18     1     3    1
    19     1    29    1
    20    22    21    1
    21    34    37    1
    22    34    35    1
    23    34    29    1
    24    21    24    1
    25    21    23    1
    26     6     4    1
    27     3     4    1
    28     3    12    1
    29    38    29    1
    30    38    39    1
    31    38    40    1
    32    29    30    1
    33     4     5    1
    34     4     7    1
    35    15    12    1
    36    12    13    1
    37    12    14    1
    38    30    32    1
    39    30    31    1
    40    30    33    1
