@<TRIPOS>MOLECULE
1
 13 13 0 0 0
SMALL
GASTEIGER

@<TRIPOS>ATOM
      1 O          -0.4972    3.0617   12.8497 O.3     1  UNL1       -0.3798
      2 C          -1.7190    2.3025   12.7559 C.3     1  UNL1        0.0477
      3 H          -1.4549    1.2393   12.7241 H       1  UNL1        0.0560
      4 H          -2.2473    2.6044   11.8409 H       1  UNL1        0.0560
      5 C          -2.5284    2.6880   13.9866 C.3     1  UNL1       -0.0274
      6 H          -3.5905    2.4964   13.8589 H       1  UNL1        0.0288
      7 H          -2.1665    2.1492   14.8636 H       1  UNL1        0.0288
      8 C          -2.1929    4.1722   14.0905 C.3     1  UNL1       -0.0274
      9 H          -2.3853    4.5877   15.0761 H       1  UNL1        0.0288
     10 H          -2.7498    4.7378   13.3426 H       1  UNL1        0.0288
     11 C          -0.7081    4.1798   13.7381 C.3     1  UNL1        0.0477
     12 H          -0.4170    5.0988   13.2184 H       1  UNL1        0.0560
     13 H          -0.0893    4.0208   14.6311 H       1  UNL1        0.0560
@<TRIPOS>BOND
     1     4     2    1
     2     3     2    1
     3     2     1    1
     4     2     5    1
     5     1    11    1
     6    12    11    1
     7    10     8    1
     8    11     8    1
     9    11    13    1
    10     6     5    1
    11     5     8    1
    12     5     7    1
    13     8     9    1
