@<TRIPOS>MOLECULE
1
 13 13 0 0 0
SMALL
GASTEIGER

@<TRIPOS>ATOM
      1 O          -2.3680    2.1916   -2.8311 O.3     1  UNL1       -0.3798
      2 C          -3.1023    3.4303   -2.9244 C.3     1  UNL1        0.0477
      3 H          -3.9190    3.3052   -3.6500 H       1  UNL1        0.0560
      4 H          -2.4073    4.2133   -3.2452 H       1  UNL1        0.0560
      5 C          -3.6667    3.6760   -1.5320 C.3     1  UNL1       -0.0274
      6 H          -2.9036    4.1150   -0.8872 H       1  UNL1        0.0288
      7 H          -4.5421    4.3186   -1.5538 H       1  UNL1        0.0288
      8 C          -3.9859    2.2510   -1.0929 C.3     1  UNL1       -0.0274
      9 H          -4.9050    1.9133   -1.5729 H       1  UNL1        0.0288
     10 H          -4.0801    2.1447   -0.0156 H       1  UNL1        0.0288
     11 C          -2.7932    1.4776   -1.6473 C.3     1  UNL1        0.0477
     12 H          -1.9548    1.4779   -0.9352 H       1  UNL1        0.0560
     13 H          -3.0676    0.4518   -1.9310 H       1  UNL1        0.0560
@<TRIPOS>BOND
     1     3     2    1
     2     4     2    1
     3     2     1    1
     4     2     5    1
     5     1    11    1
     6    13    11    1
     7    11     8    1
     8    11    12    1
     9     9     8    1
    10     7     5    1
    11     5     8    1
    12     5     6    1
    13     8    10    1
