@<TRIPOS>MOLECULE
2
 35 37 0 0 0
SMALL
GASTEIGER

@<TRIPOS>ATOM
      1 SI          2.4527    5.5247    4.3244 Si      1  UNL1        0.0000
      2 O           3.4804    6.7253    4.5701 O.3     1  UNL1        0.0000
      3 C           0.7895    6.3308    3.8756 C.ar    1  UNL1        0.0000
      4 C           0.8430    7.5714    3.2438 C.ar    1  UNL1        0.0000
      5 H           1.8176    7.9891    3.0124 H       1  UNL1        0.0000
      6 C          -0.3132    8.2671    2.9416 C.ar    1  UNL1        0.0000
      7 H          -0.2540    9.2328    2.4600 H       1  UNL1        0.0000
      8 C          -1.5474    7.7284    3.2664 C.ar    1  UNL1        0.0000
      9 H          -2.4531    8.2719    3.0382 H       1  UNL1        0.0000
     10 C          -1.6176    6.4947    3.8899 C.ar    1  UNL1        0.0000
     11 H          -2.5795    6.0743    4.1480 H       1  UNL1        0.0000
     12 C          -0.4570    5.8039    4.1908 C.ar    1  UNL1        0.0000
     13 H          -0.5184    4.8479    4.6906 H       1  UNL1        0.0000
     14 C           3.1558    4.4995    2.8823 C.ar    1  UNL1        0.0000
     15 C           2.5282    3.3810    2.3441 C.ar    1  UNL1        0.0000
     16 H           1.5828    3.0558    2.7532 H       1  UNL1        0.0000
     17 C           3.0895    2.6848    1.2881 C.ar    1  UNL1        0.0000
     18 H           2.5877    1.8169    0.8833 H       1  UNL1        0.0000
     19 C           4.2941    3.1013    0.7470 C.ar    1  UNL1        0.0000
     20 H           4.7346    2.5582   -0.0772 H       1  UNL1        0.0000
     21 C           4.9278    4.2203    1.2627 C.ar    1  UNL1        0.0000
     22 H           5.8647    4.5521    0.8370 H       1  UNL1        0.0000
     23 C           4.3624    4.9127    2.3188 C.ar    1  UNL1        0.0000
     24 H           4.8496    5.7964    2.7230 H       1  UNL1        0.0000
     25 C           2.3108    4.5306    5.9415 C.ar    1  UNL1        0.0000
     26 C           1.6038    3.3370    6.0404 C.ar    1  UNL1        0.0000
     27 H           1.1518    2.9153    5.1550 H       1  UNL1        0.0000
     28 C           1.4725    2.6780    7.2503 C.ar    1  UNL1        0.0000
     29 H           0.9190    1.7511    7.3055 H       1  UNL1        0.0000
     30 C           2.0443    3.2098    8.3936 C.ar    1  UNL1        0.0000
     31 H           1.9344    2.7037    9.3422 H       1  UNL1        0.0000
     32 C           2.7580    4.3946    8.3148 C.ar    1  UNL1        0.0000
     33 H           3.1978    4.8167    9.2079 H       1  UNL1        0.0000
     34 C           2.8942    5.0421    7.0992 C.ar    1  UNL1        0.0000
     35 H           3.4562    5.9667    7.0308 H       1  UNL1        0.0000
@<TRIPOS>BOND
     1    20    19    1
     2    19    21   ar
     3    19    17   ar
     4    22    21    1
     5    18    17    1
     6    21    23   ar
     7    17    15   ar
     8    23    24    1
     9    23    14   ar
    10    15    16    1
    11    15    14   ar
    12     7     6    1
    13    14     1    1
    14     6     4   ar
    15     6     8   ar
    16     5     4    1
    17     9     8    1
    18     4     3   ar
    19     8    10   ar
    20     3    12   ar
    21     3     1    1
    22    10    11    1
    23    10    12   ar
    24    12    13    1
    25     1     2    1
    26     1    25    1
    27    27    26    1
    28    25    26   ar
    29    25    34   ar
    30    26    28   ar
    31    35    34    1
    32    34    32   ar
    33    28    29    1
    34    28    30   ar
    35    32    30   ar
    36    32    33    1
    37    30    31    1
