@<TRIPOS>MOLECULE
2
 35 37 0 0 0
SMALL
GASTEIGER

@<TRIPOS>ATOM
      1 SI          2.2673   10.4901    5.0966 Si      1  UNL1        0.0000
      2 O           3.3401    9.3652    4.7192 O.3     1  UNL1        0.0000
      3 C           1.6892   11.2823    3.4677 C.ar    1  UNL1        0.0000
      4 C           0.7258   12.2825    3.3987 C.ar    1  UNL1        0.0000
      5 H           0.2952   12.6674    4.3114 H       1  UNL1        0.0000
      6 C           0.3041   12.7911    2.1826 C.ar    1  UNL1        0.0000
      7 H          -0.4465   13.5684    2.1512 H       1  UNL1        0.0000
      8 C           0.8378   12.2984    1.0039 C.ar    1  UNL1        0.0000
      9 H           0.5035   12.6864    0.0523 H       1  UNL1        0.0000
     10 C           1.8002   11.3028    1.0510 C.ar    1  UNL1        0.0000
     11 H           2.2115   10.9091    0.1320 H       1  UNL1        0.0000
     12 C           2.2240   10.8069    2.2716 C.ar    1  UNL1        0.0000
     13 H           2.9767   10.0270    2.3159 H       1  UNL1        0.0000
     14 C           3.1738   11.7280    6.2289 C.ar    1  UNL1        0.0000
     15 C           2.7906   13.0505    6.4249 C.ar    1  UNL1        0.0000
     16 H           1.9107   13.4274    5.9252 H       1  UNL1        0.0000
     17 C           3.5215   13.8941    7.2436 C.ar    1  UNL1        0.0000
     18 H           3.2083   14.9195    7.3816 H       1  UNL1        0.0000
     19 C           4.6558   13.4259    7.8842 C.ar    1  UNL1        0.0000
     20 H           5.2292   14.0838    8.5219 H       1  UNL1        0.0000
     21 C           5.0517   12.1105    7.7030 C.ar    1  UNL1        0.0000
     22 H           5.9373   11.7415    8.2018 H       1  UNL1        0.0000
     23 C           4.3169   11.2705    6.8851 C.ar    1  UNL1        0.0000
     24 H           4.6276   10.2405    6.7344 H       1  UNL1        0.0000
     25 C           0.8674    9.5614    5.9911 C.ar    1  UNL1        0.0000
     26 C           1.2089    8.3393    6.5684 C.ar    1  UNL1        0.0000
     27 H           2.2449    8.0154    6.5142 H       1  UNL1        0.0000
     28 C           0.2520    7.5443    7.1718 C.ar    1  UNL1        0.0000
     29 H           0.5322    6.5930    7.6018 H       1  UNL1        0.0000
     30 C          -1.0679    7.9630    7.2130 C.ar    1  UNL1        0.0000
     31 H          -1.8202    7.3410    7.6767 H       1  UNL1        0.0000
     32 C          -1.4215    9.1783    6.6531 C.ar    1  UNL1        0.0000
     33 H          -2.4509    9.5069    6.6822 H       1  UNL1        0.0000
     34 C          -0.4600    9.9683    6.0477 C.ar    1  UNL1        0.0000
     35 H          -0.7484   10.9088    5.6022 H       1  UNL1        0.0000
@<TRIPOS>BOND
     1     9     8    1
     2    11    10    1
     3     8    10   ar
     4     8     6   ar
     5    10    12   ar
     6     7     6    1
     7     6     4   ar
     8    12    13    1
     9    12     3   ar
    10     4     3   ar
    11     4     5    1
    12     3     1    1
    13     2     1    1
    14     1    25    1
    15     1    14    1
    16    35    34    1
    17    16    15    1
    18    25    34   ar
    19    25    26   ar
    20    34    32   ar
    21    14    15   ar
    22    14    23   ar
    23    15    17   ar
    24    27    26    1
    25    26    28   ar
    26    32    33    1
    27    32    30   ar
    28    24    23    1
    29    23    21   ar
    30    28    30   ar
    31    28    29    1
    32    30    31    1
    33    17    18    1
    34    17    19   ar
    35    21    19   ar
    36    21    22    1
    37    19    20    1
