@<TRIPOS>MOLECULE
1
 13 13 0 0 0
SMALL
GASTEIGER

@<TRIPOS>ATOM
      1 O           5.9198    8.1783   21.3433 O.3     1  UNL1       -0.3798
      2 C           4.7115    7.5753   21.8244 C.3     1  UNL1        0.0477
      3 H           4.4943    6.6928   21.2122 H       1  UNL1        0.0560
      4 H           3.8927    8.2902   21.7075 H       1  UNL1        0.0560
      5 C           6.9561    7.9900   22.3148 C.3     1  UNL1        0.0477
      6 H           7.1100    8.9357   22.8498 H       1  UNL1        0.0560
      7 H           7.8711    7.7107   21.7913 H       1  UNL1        0.0560
      8 C           6.4628    6.9061   23.2666 C.3     1  UNL1       -0.0274
      9 H           6.9203    6.9818   24.2498 H       1  UNL1        0.0288
     10 H           6.6734    5.9199   22.8520 H       1  UNL1        0.0288
     11 C           4.9615    7.1788   23.2777 C.3     1  UNL1       -0.0274
     12 H           4.3689    6.3170   23.5756 H       1  UNL1        0.0288
     13 H           4.7360    8.0120   23.9440 H       1  UNL1        0.0288
@<TRIPOS>BOND
     1     3     2    1
     2     1     2    1
     3     1     5    1
     4     4     2    1
     5     7     5    1
     6     2    11    1
     7     5     6    1
     8     5     8    1
     9    10     8    1
    10     8    11    1
    11     8     9    1
    12    11    12    1
    13    11    13    1
