@<TRIPOS>MOLECULE
1
 13 13 0 0 0
SMALL
GASTEIGER

@<TRIPOS>ATOM
      1 O           1.4657    1.6060   22.3379 O.3     1  UNL1       -0.3798
      2 C           1.9937    0.3774   21.8173 C.3     1  UNL1        0.0477
      3 H           2.9718    0.2169   22.2742 H       1  UNL1        0.0560
      4 H           2.0980    0.4562   20.7295 H       1  UNL1        0.0560
      5 C           0.9715   -0.6849   22.1986 C.3     1  UNL1       -0.0274
      6 H           1.1152   -0.9788   23.2384 H       1  UNL1        0.0288
      7 H           1.0427   -1.5700   21.5725 H       1  UNL1        0.0288
      8 C          -0.3479    0.0660   22.0095 C.3     1  UNL1       -0.0274
      9 H          -1.1184   -0.2709   22.6992 H       1  UNL1        0.0288
     10 H          -0.7194   -0.0703   20.9945 H       1  UNL1        0.0288
     11 C           0.0332    1.5356   22.2488 C.3     1  UNL1        0.0477
     12 H          -0.3134    2.1732   21.4279 H       1  UNL1        0.0560
     13 H          -0.3681    1.9149   23.1927 H       1  UNL1        0.0560
@<TRIPOS>BOND
     1     4     2    1
     2    10     8    1
     3    12    11    1
     4     7     5    1
     5     2     5    1
     6     2     3    1
     7     2     1    1
     8     8     5    1
     9     8    11    1
    10     8     9    1
    11     5     6    1
    12    11     1    1
    13    11    13    1
