@<TRIPOS>MOLECULE
1
 13 13 0 0 0
SMALL
GASTEIGER

@<TRIPOS>ATOM
      1 O           0.9949    4.6070   23.5230 O.3     1  UNL1       -0.3798
      2 C          -0.0399    5.2691   22.7633 C.3     1  UNL1        0.0477
      3 H           0.4473    5.9912   22.1020 H       1  UNL1        0.0560
      4 H          -0.5637    4.5288   22.1512 H       1  UNL1        0.0560
      5 C          -0.9780    5.9552   23.7614 C.3     1  UNL1       -0.0274
      6 H          -1.8540    5.3354   23.9518 H       1  UNL1        0.0288
      7 H          -1.3142    6.9247   23.4033 H       1  UNL1        0.0288
      8 C          -0.1191    6.0526   25.0199 C.3     1  UNL1       -0.0274
      9 H           0.5332    6.9252   24.9773 H       1  UNL1        0.0288
     10 H          -0.7076    6.1001   25.9320 H       1  UNL1        0.0288
     11 C           0.6880    4.7654   24.9188 C.3     1  UNL1        0.0477
     12 H           1.6280    4.7830   25.4728 H       1  UNL1        0.0560
     13 H           0.0785    3.9169   25.2555 H       1  UNL1        0.0560
@<TRIPOS>BOND
     1     3     2    1
     2     4     2    1
     3     2     1    1
     4     2     5    1
     5     7     5    1
     6     1    11    1
     7     5     6    1
     8     5     8    1
     9    11     8    1
    10    11    13    1
    11    11    12    1
    12     9     8    1
    13     8    10    1
