@<TRIPOS>MOLECULE
1
 13 13 0 0 0
SMALL
GASTEIGER

@<TRIPOS>ATOM
      1 O           0.6318    8.4988    6.4006 O.3     1  UNL1       -0.3798
      2 C           0.5510    7.4406    7.3619 C.3     1  UNL1        0.0477
      3 H           0.5240    6.4941    6.8227 H       1  UNL1        0.0560
      4 H           1.4420    7.4670    8.0059 H       1  UNL1        0.0560
      5 C          -0.7043    7.7283    8.1735 C.3     1  UNL1       -0.0274
      6 H          -1.5870    7.4366    7.6049 H       1  UNL1        0.0288
      7 H          -0.7062    7.2213    9.1354 H       1  UNL1        0.0288
      8 C          -0.6271    9.2477    8.2956 C.3     1  UNL1       -0.0274
      9 H           0.0462    9.5279    9.1066 H       1  UNL1        0.0288
     10 H          -1.5956    9.7084    8.4734 H       1  UNL1        0.0288
     11 C          -0.0403    9.6564    6.9424 C.3     1  UNL1        0.0477
     12 H           0.6838   10.4739    7.0336 H       1  UNL1        0.0560
     13 H          -0.8222    9.9374    6.2302 H       1  UNL1        0.0560
@<TRIPOS>BOND
     1    13    11    1
     2     1    11    1
     3     1     2    1
     4     3     2    1
     5    11    12    1
     6    11     8    1
     7     2     4    1
     8     2     5    1
     9     6     5    1
    10     5     8    1
    11     5     7    1
    12     8    10    1
    13     8     9    1
