@<TRIPOS>MOLECULE
1
 13 13 0 0 0
SMALL
GASTEIGER

@<TRIPOS>ATOM
      1 O           3.0353    6.1070   21.9704 O.3     1  UNL1       -0.3798
      2 C           3.0827    6.7016   20.6570 C.3     1  UNL1        0.0477
      3 H           3.9743    6.3438   20.1359 H       1  UNL1        0.0560
      4 H           2.1995    6.3605   20.1104 H       1  UNL1        0.0560
      5 C           3.0868    8.2233   20.8406 C.3     1  UNL1       -0.0274
      6 H           4.0983    8.6190   20.7559 H       1  UNL1        0.0288
      7 H           2.4598    8.7212   20.1058 H       1  UNL1        0.0288
      8 C           2.5759    8.3948   22.2693 C.3     1  UNL1       -0.0274
      9 H           1.4859    8.3626   22.2953 H       1  UNL1        0.0288
     10 H           2.9136    9.3178   22.7326 H       1  UNL1        0.0288
     11 C           3.1688    7.1607   22.9351 C.3     1  UNL1        0.0477
     12 H           2.6472    6.8471   23.8403 H       1  UNL1        0.0560
     13 H           4.2286    7.3208   23.1704 H       1  UNL1        0.0560
@<TRIPOS>BOND
     1     7     5    1
     2     4     2    1
     3     3     2    1
     4     2     5    1
     5     2     1    1
     6     6     5    1
     7     5     8    1
     8     1    11    1
     9     8     9    1
    10     8    10    1
    11     8    11    1
    12    11    13    1
    13    11    12    1
