@<TRIPOS>MOLECULE
2
 8 7 0 0 0
SMALL
GASTEIGER

@<TRIPOS>ATOM
      1 S           7.6259    9.7241    0.6550 S.3     1  UNL1        0.1076
      2 O           8.3468   10.4268    1.7188 O.3     1  UNL1       -0.0619
      3 O           8.4800    9.2858   -0.4106 O.3     1  UNL1       -0.0619
      4 O           6.6019    8.8353    1.1162 O.3     1  UNL1       -0.0619
      5 C           6.7065   11.1973   -0.0232 C.3     1  UNL1        0.5278
      6 F           5.9452   11.7148    0.9503 F       1  UNL1       -0.1499
      7 F           7.5803   12.1469   -0.3826 F       1  UNL1       -0.1499
      8 F           5.9239   10.9408   -1.0667 F       1  UNL1       -0.1499
@<TRIPOS>BOND
     1     8     5    1
     2     3     1    1
     3     7     5    1
     4     5     1    1
     5     5     6    1
     6     1     4    1
     7     1     2    1
