@<TRIPOS>MOLECULE
1
 13 13 0 0 0
SMALL
GASTEIGER

@<TRIPOS>ATOM
      1 O          10.3880    1.6808   11.5142 O.3     1  UNL1       -0.3798
      2 C          10.9359    1.5275   12.8391 C.3     1  UNL1        0.0477
      3 H          10.0919    1.4254   13.5269 H       1  UNL1        0.0560
      4 H          11.5023    2.4292   13.0938 H       1  UNL1        0.0560
      5 C          11.8219    0.2765   12.8260 C.3     1  UNL1       -0.0274
      6 H          12.8734    0.5522   12.7415 H       1  UNL1        0.0288
      7 H          11.6913   -0.3224   13.7239 H       1  UNL1        0.0288
      8 C          11.3623   -0.4487   11.5631 C.3     1  UNL1       -0.0274
      9 H          12.1263   -1.0987   11.1440 H       1  UNL1        0.0288
     10 H          10.4603   -1.0262   11.7615 H       1  UNL1        0.0288
     11 C          11.0296    0.7283   10.6564 C.3     1  UNL1        0.0477
     12 H          11.9452    1.1713   10.2409 H       1  UNL1        0.0560
     13 H          10.3309    0.4859    9.8519 H       1  UNL1        0.0560
@<TRIPOS>BOND
     1    13    11    1
     2    12    11    1
     3    11     1    1
     4    11     8    1
     5     9     8    1
     6     1     2    1
     7     8    10    1
     8     8     5    1
     9     6     5    1
    10     5     2    1
    11     5     7    1
    12     2     4    1
    13     2     3    1
