@<TRIPOS>MOLECULE
1
 13 13 0 0 0
SMALL
GASTEIGER

@<TRIPOS>ATOM
      1 O           3.9558    1.3005    4.4675 O.3     1  UNL1       -0.3798
      2 C           5.2948    0.9144    4.1107 C.3     1  UNL1        0.0477
      3 H           5.9429    1.7935    4.1963 H       1  UNL1        0.0560
      4 H           5.2753    0.5761    3.0659 H       1  UNL1        0.0560
      5 C           5.6860   -0.2145    5.0626 C.3     1  UNL1       -0.0274
      6 H           6.1488    0.1902    5.9631 H       1  UNL1        0.0288
      7 H           6.3718   -0.9192    4.5992 H       1  UNL1        0.0288
      8 C           4.3284   -0.8253    5.3981 C.3     1  UNL1       -0.0274
      9 H           3.9846   -1.4625    4.5816 H       1  UNL1        0.0288
     10 H           4.3309   -1.3970    6.3224 H       1  UNL1        0.0288
     11 C           3.4630    0.4249    5.4915 C.3     1  UNL1        0.0477
     12 H           2.4028    0.2459    5.2951 H       1  UNL1        0.0560
     13 H           3.5791    0.9216    6.4658 H       1  UNL1        0.0560
@<TRIPOS>BOND
     1     4     2    1
     2     2     3    1
     3     2     1    1
     4     2     5    1
     5     1    11    1
     6     9     8    1
     7     7     5    1
     8     5     8    1
     9     5     6    1
    10    12    11    1
    11     8    11    1
    12     8    10    1
    13    11    13    1
