@<TRIPOS>MOLECULE
1
 13 13 0 0 0
SMALL
GASTEIGER

@<TRIPOS>ATOM
      1 O           4.1646    1.3277    2.8456 O.3     1  UNL1       -0.3798
      2 C           2.7990    0.9758    3.1471 C.3     1  UNL1        0.0477
      3 H           2.2014    1.8948    3.1444 H       1  UNL1        0.0560
      4 H           2.7823    0.5238    4.1489 H       1  UNL1        0.0560
      5 C           2.3761   -0.0216    2.0716 C.3     1  UNL1       -0.0274
      6 H           1.9989    0.5049    1.1946 H       1  UNL1        0.0288
      7 H           1.6135   -0.7095    2.4276 H       1  UNL1        0.0288
      8 C           3.7001   -0.7077    1.7448 C.3     1  UNL1       -0.0274
      9 H           3.9470   -1.4431    2.5119 H       1  UNL1        0.0288
     10 H           3.7011   -1.1929    0.7723 H       1  UNL1        0.0288
     11 C           4.6679    0.4689    1.8038 C.3     1  UNL1        0.0477
     12 H           5.6916    0.1874    2.0718 H       1  UNL1        0.0560
     13 H           4.6728    1.0337    0.8601 H       1  UNL1        0.0560
@<TRIPOS>BOND
     1    10     8    1
     2    13    11    1
     3     6     5    1
     4     8    11    1
     5     8     5    1
     6     8     9    1
     7    11    12    1
     8    11     1    1
     9     5     7    1
    10     5     2    1
    11     1     2    1
    12     3     2    1
    13     2     4    1
