@<TRIPOS>MOLECULE
1
 13 13 0 0 0
SMALL
GASTEIGER

@<TRIPOS>ATOM
      1 O           8.8552   -0.3171    4.1473 O.3     1  UNL1       -0.3798
      2 C           7.4514   -0.3171    3.8157 C.3     1  UNL1        0.0477
      3 H           7.1501    0.7006    3.5454 H       1  UNL1        0.0560
      4 H           6.8998   -0.6275    4.7133 H       1  UNL1        0.0560
      5 C           7.2701   -1.3062    2.6660 C.3     1  UNL1       -0.0274
      6 H           7.3704   -0.7964    1.7076 H       1  UNL1        0.0288
      7 H           6.3025   -1.8004    2.7060 H       1  UNL1        0.0288
      8 C           8.4417   -2.2601    2.8795 C.3     1  UNL1       -0.0274
      9 H           8.2130   -2.9764    3.6707 H       1  UNL1        0.0288
     10 H           8.7228   -2.8003    1.9792 H       1  UNL1        0.0288
     11 C           9.5253   -1.2877    3.3283 C.3     1  UNL1        0.0477
     12 H          10.3179   -1.7492    3.9251 H       1  UNL1        0.0560
     13 H           9.9779   -0.7837    2.4647 H       1  UNL1        0.0560
@<TRIPOS>BOND
     1     6     5    1
     2    10     8    1
     3    13    11    1
     4     5     7    1
     5     5     8    1
     6     5     2    1
     7     8    11    1
     8     8     9    1
     9    11    12    1
    10    11     1    1
    11     3     2    1
    12     2     1    1
    13     2     4    1
