@<TRIPOS>MOLECULE
1
 35 37 0 0 0
SMALL
GASTEIGER

@<TRIPOS>ATOM
      1 O          10.5881    2.3994    6.2971 O.3     1  UNL1        0.0000
      2 SI         10.9953    3.3498    7.5296 Si      1  UNL1        0.0000
      3 C           9.6032    4.6097    7.7931 C.ar    1  UNL1        0.0000
      4 C           9.5187    5.4051    8.9315 C.ar    1  UNL1        0.0000
      5 H          10.2678    5.3050    9.7045 H       1  UNL1        0.0000
      6 C           8.4845    6.3094    9.0914 C.ar    1  UNL1        0.0000
      7 H           8.4323    6.9193    9.9824 H       1  UNL1        0.0000
      8 C           7.5135    6.4308    8.1110 C.ar    1  UNL1        0.0000
      9 H           6.7051    7.1372    8.2350 H       1  UNL1        0.0000
     10 C           7.5771    5.6403    6.9756 C.ar    1  UNL1        0.0000
     11 H           6.8185    5.7246    6.2107 H       1  UNL1        0.0000
     12 C           8.6134    4.7367    6.8218 C.ar    1  UNL1        0.0000
     13 H           8.6584    4.1067    5.9390 H       1  UNL1        0.0000
     14 C          12.6677    4.1406    7.1045 C.ar    1  UNL1        0.0000
     15 C          13.1836    5.1952    7.8506 C.ar    1  UNL1        0.0000
     16 H          12.6114    5.5825    8.6808 H       1  UNL1        0.0000
     17 C          14.4102    5.7554    7.5427 C.ar    1  UNL1        0.0000
     18 H          14.7936    6.5760    8.1326 H       1  UNL1        0.0000
     19 C          15.1468    5.2663    6.4760 C.ar    1  UNL1        0.0000
     20 H          16.1044    5.7042    6.2328 H       1  UNL1        0.0000
     21 C          14.6485    4.2176    5.7214 C.ar    1  UNL1        0.0000
     22 H          15.2137    3.8343    4.8840 H       1  UNL1        0.0000
     23 C          13.4206    3.6611    6.0351 C.ar    1  UNL1        0.0000
     24 H          13.0312    2.8489    5.4343 H       1  UNL1        0.0000
     25 C          11.1879    2.2348    9.0685 C.ar    1  UNL1        0.0000
     26 C          12.3957    2.1098    9.7487 C.ar    1  UNL1        0.0000
     27 H          13.2485    2.6869    9.4192 H       1  UNL1        0.0000
     28 C          12.5203    1.2631   10.8371 C.ar    1  UNL1        0.0000
     29 H          13.4668    1.1814   11.3526 H       1  UNL1        0.0000
     30 C          11.4324    0.5202   11.2650 C.ar    1  UNL1        0.0000
     31 H          11.5277   -0.1424   12.1135 H       1  UNL1        0.0000
     32 C          10.2212    0.6338   10.6015 C.ar    1  UNL1        0.0000
     33 H           9.3673    0.0602   10.9342 H       1  UNL1        0.0000
     34 C          10.1014    1.4853    9.5165 C.ar    1  UNL1        0.0000
     35 H           9.1523    1.5747    9.0055 H       1  UNL1        0.0000
@<TRIPOS>BOND
     1    22    21    1
     2    24    23    1
     3    21    23   ar
     4    21    19   ar
     5    13    12    1
     6    23    14   ar
     7    11    10    1
     8    20    19    1
     9     1     2    1
    10    19    17   ar
    11    12    10   ar
    12    12     3   ar
    13    10     8   ar
    14    14     2    1
    15    14    15   ar
    16     2     3    1
    17     2    25    1
    18    17    15   ar
    19    17    18    1
    20     3     4   ar
    21    15    16    1
    22     8     9    1
    23     8     6   ar
    24     4     6   ar
    25     4     5    1
    26    35    34    1
    27    25    34   ar
    28    25    26   ar
    29     6     7    1
    30    27    26    1
    31    34    32   ar
    32    26    28   ar
    33    32    33    1
    34    32    30   ar
    35    28    30   ar
    36    28    29    1
    37    30    31    1
