@<TRIPOS>MOLECULE
2
 35 37 0 0 0
SMALL
GASTEIGER

@<TRIPOS>ATOM
      1 SI          8.4802    3.3499    2.9245 Si      1  UNL1        0.0000
      2 O           8.8871    2.3994    4.1571 O.3     1  UNL1        0.0000
      3 C           9.8723    4.6098    2.6612 C.ar    1  UNL1        0.0000
      4 C           9.9569    5.4051    1.5228 C.ar    1  UNL1        0.0000
      5 H           9.2078    5.3050    0.7497 H       1  UNL1        0.0000
      6 C          10.9910    6.3094    1.3629 C.ar    1  UNL1        0.0000
      7 H          11.0432    6.9193    0.4719 H       1  UNL1        0.0000
      8 C          11.9620    6.4309    2.3433 C.ar    1  UNL1        0.0000
      9 H          12.7704    7.1373    2.2193 H       1  UNL1        0.0000
     10 C          11.8984    5.6404    3.4788 C.ar    1  UNL1        0.0000
     11 H          12.6569    5.7248    4.2437 H       1  UNL1        0.0000
     12 C          10.8621    4.7369    3.6326 C.ar    1  UNL1        0.0000
     13 H          10.8170    4.1069    4.5154 H       1  UNL1        0.0000
     14 C           6.8077    4.1407    3.3496 C.ar    1  UNL1        0.0000
     15 C           6.2917    5.1952    2.6036 C.ar    1  UNL1        0.0000
     16 H           6.8639    5.5827    1.7733 H       1  UNL1        0.0000
     17 C           5.0651    5.7553    2.9115 C.ar    1  UNL1        0.0000
     18 H           4.6816    6.5759    2.3215 H       1  UNL1        0.0000
     19 C           4.3286    5.2661    3.9781 C.ar    1  UNL1        0.0000
     20 H           3.3709    5.7038    4.2214 H       1  UNL1        0.0000
     21 C           4.8270    4.2174    4.7327 C.ar    1  UNL1        0.0000
     22 H           4.2618    3.8340    5.5700 H       1  UNL1        0.0000
     23 C           6.0548    3.6611    4.4190 C.ar    1  UNL1        0.0000
     24 H           6.4443    2.8489    5.0197 H       1  UNL1        0.0000
     25 C           8.2877    2.2349    1.3856 C.ar    1  UNL1        0.0000
     26 C           7.0798    2.1098    0.7055 C.ar    1  UNL1        0.0000
     27 H           6.2270    2.6868    1.0350 H       1  UNL1        0.0000
     28 C           6.9552    1.2629   -0.3828 C.ar    1  UNL1        0.0000
     29 H           6.0086    1.1812   -0.8982 H       1  UNL1        0.0000
     30 C           8.0431    0.5201   -0.8107 C.ar    1  UNL1        0.0000
     31 H           7.9476   -0.1427   -1.6590 H       1  UNL1        0.0000
     32 C           9.2543    0.6339   -0.1474 C.ar    1  UNL1        0.0000
     33 H          10.1082    0.0604   -0.4802 H       1  UNL1        0.0000
     34 C           9.3742    1.4856    0.9375 C.ar    1  UNL1        0.0000
     35 H          10.3233    1.5751    1.4484 H       1  UNL1        0.0000
@<TRIPOS>BOND
     1    31    30    1
     2    29    28    1
     3    30    28   ar
     4    30    32   ar
     5    33    32    1
     6    28    26   ar
     7    32    34   ar
     8     7     6    1
     9    26    27    1
    10    26    25   ar
    11     5     4    1
    12    34    25   ar
    13    34    35    1
    14     6     4   ar
    15     6     8   ar
    16    25     1    1
    17     4     3   ar
    18    16    15    1
    19     9     8    1
    20    18    17    1
    21     8    10   ar
    22    15    17   ar
    23    15    14   ar
    24     3     1    1
    25     3    12   ar
    26    17    19   ar
    27     1    14    1
    28     1     2    1
    29    14    23   ar
    30    10    12   ar
    31    10    11    1
    32    12    13    1
    33    19    20    1
    34    19    21   ar
    35    23    21   ar
    36    23    24    1
    37    21    22    1
