@<TRIPOS>MOLECULE
1
 13 13 0 0 0
SMALL
GASTEIGER

@<TRIPOS>ATOM
      1 O          10.6200   -0.3170    6.3071 O.3     1  UNL1       -0.3798
      2 C          12.0238   -0.3171    6.6386 C.3     1  UNL1        0.0477
      3 H          12.3252    0.7005    6.9090 H       1  UNL1        0.0560
      4 H          12.5754   -0.6276    5.7411 H       1  UNL1        0.0560
      5 C          12.2051   -1.3063    7.7883 C.3     1  UNL1       -0.0274
      6 H          12.1050   -0.7964    8.7467 H       1  UNL1        0.0288
      7 H          13.1728   -1.8005    7.7484 H       1  UNL1        0.0288
      8 C          11.0335   -2.2600    7.5749 C.3     1  UNL1       -0.0274
      9 H          11.2622   -2.9765    6.7838 H       1  UNL1        0.0288
     10 H          10.7524   -2.8002    8.4751 H       1  UNL1        0.0288
     11 C           9.9499   -1.2877    7.1260 C.3     1  UNL1        0.0477
     12 H           9.1574   -1.7492    6.5290 H       1  UNL1        0.0560
     13 H           9.4972   -0.7839    7.9895 H       1  UNL1        0.0560
@<TRIPOS>BOND
     1     4     2    1
     2     1     2    1
     3     1    11    1
     4    12    11    1
     5     2     3    1
     6     2     5    1
     7     9     8    1
     8    11     8    1
     9    11    13    1
    10     8     5    1
    11     8    10    1
    12     7     5    1
    13     5     6    1
