@<TRIPOS>MOLECULE
1
 13 13 0 0 0
SMALL
GASTEIGER

@<TRIPOS>ATOM
      1 O           4.1827   -0.7866   11.9529 O.3     1  UNL1       -0.3798
      2 C           3.3416   -0.9204   13.1104 C.3     1  UNL1        0.0477
      3 H           2.7835    0.0141   13.2496 H       1  UNL1        0.0560
      4 H           3.9798   -1.0976   13.9782 H       1  UNL1        0.0560
      5 C           2.3919   -2.0760   12.8176 C.3     1  UNL1       -0.0274
      6 H           2.8725   -3.0271   13.0468 H       1  UNL1        0.0288
      7 H           1.4636   -2.0007   13.3781 H       1  UNL1        0.0288
      8 C           2.1996   -1.9296   11.3116 C.3     1  UNL1       -0.0274
      9 H           1.4842   -1.1346   11.0976 H       1  UNL1        0.0288
     10 H           1.8639   -2.8445   10.8301 H       1  UNL1        0.0288
     11 C           3.6019   -1.5244   10.8666 C.3     1  UNL1        0.0477
     12 H           4.2204   -2.4111   10.6772 H       1  UNL1        0.0560
     13 H           3.6010   -0.8925    9.9752 H       1  UNL1        0.0560
@<TRIPOS>BOND
     1    13    11    1
     2    12    11    1
     3    10     8    1
     4    11     8    1
     5    11     1    1
     6     9     8    1
     7     8     5    1
     8     1     2    1
     9     5     6    1
    10     5     2    1
    11     5     7    1
    12     2     3    1
    13     2     4    1
