@<TRIPOS>MOLECULE
1
 13 13 0 0 0
SMALL
GASTEIGER

@<TRIPOS>ATOM
      1 O          -1.4616    2.1314   18.3364 O.3     1  UNL1       -0.3798
      2 C          -1.4827    0.8843   17.6258 C.3     1  UNL1        0.0477
      3 H          -0.9113    0.1419   18.1972 H       1  UNL1        0.0560
      4 H          -1.0052    1.0381   16.6555 H       1  UNL1        0.0560
      5 C          -2.9473    0.4778   17.5141 C.3     1  UNL1       -0.0274
      6 H          -3.4184    0.9796   16.6677 H       1  UNL1        0.0288
      7 H          -3.0675   -0.5966   17.4023 H       1  UNL1        0.0288
      8 C          -3.5058    1.0133   18.8282 C.3     1  UNL1       -0.0274
      9 H          -3.2637    0.3358   19.6466 H       1  UNL1        0.0288
     10 H          -4.5805    1.1754   18.8040 H       1  UNL1        0.0288
     11 C          -2.7313    2.3178   18.9893 C.3     1  UNL1        0.0477
     12 H          -3.2465    3.1513   18.4961 H       1  UNL1        0.0560
     13 H          -2.5540    2.5680   20.0378 H       1  UNL1        0.0560
@<TRIPOS>BOND
     1     4     2    1
     2     6     5    1
     3     7     5    1
     4     5     2    1
     5     5     8    1
     6     2     3    1
     7     2     1    1
     8     1    11    1
     9    12    11    1
    10    10     8    1
    11     8    11    1
    12     8     9    1
    13    11    13    1
