@<TRIPOS>MOLECULE
1
 13 13 0 0 0
SMALL
GASTEIGER

@<TRIPOS>ATOM
      1 O           3.1835    2.0522    7.9014 O.3     1  UNL1       -0.3798
      2 C           2.4963    0.8637    7.5298 C.3     1  UNL1        0.0477
      3 C           2.9714   -0.2237    8.5053 C.3     1  UNL1       -0.0274
      4 C           3.4832    0.5739    9.7174 C.3     1  UNL1       -0.0274
      5 C           3.2208    2.0349    9.3217 C.3     1  UNL1        0.0477
      6 H           2.7411    0.6460    6.4897 H       1  UNL1        0.0560
      7 H           1.4131    1.0217    7.6332 H       1  UNL1        0.0560
      8 H           3.7702   -0.8105    8.0566 H       1  UNL1        0.0288
      9 H           2.1578   -0.8960    8.7684 H       1  UNL1        0.0288
     10 H           2.9603    0.3140   10.6352 H       1  UNL1        0.0288
     11 H           4.5480    0.4050    9.8696 H       1  UNL1        0.0288
     12 H           2.2525    2.3713    9.7180 H       1  UNL1        0.0560
     13 H           4.0035    2.7232    9.6422 H       1  UNL1        0.0560
@<TRIPOS>BOND
     1     6     2    1
     2     2     7    1
     3     2     1    1
     4     2     3    1
     5     1     5    1
     6     8     3    1
     7     3     9    1
     8     3     4    1
     9     5    13    1
    10     5     4    1
    11     5    12    1
    12     4    11    1
    13     4    10    1
