@<TRIPOS>MOLECULE
1
 13 13 0 0 0
SMALL
GASTEIGER

@<TRIPOS>ATOM
      1 O           3.7205    7.1406    6.2848 O.3     1  UNL1       -0.3798
      2 C           4.8761    7.8086    5.7538 C.3     1  UNL1        0.0477
      3 C           4.8509    9.2544    6.2704 C.3     1  UNL1       -0.0274
      4 C           3.8089    9.2016    7.3870 C.3     1  UNL1       -0.0274
      5 C           2.8666    8.1322    6.8480 C.3     1  UNL1        0.0477
      6 H           4.8517    7.7651    4.6597 H       1  UNL1        0.0560
      7 H           5.7534    7.2638    6.1120 H       1  UNL1        0.0560
      8 H           4.5273    9.9349    5.4825 H       1  UNL1        0.0288
      9 H           5.8283    9.5765    6.6221 H       1  UNL1        0.0288
     10 H           4.2625    8.8628    8.3187 H       1  UNL1        0.0288
     11 H           3.3122   10.1542    7.5536 H       1  UNL1        0.0288
     12 H           2.2461    7.6537    7.6067 H       1  UNL1        0.0560
     13 H           2.2201    8.5568    6.0675 H       1  UNL1        0.0560
@<TRIPOS>BOND
     1     6     2    1
     2     8     3    1
     3     2     7    1
     4     2     3    1
     5     2     1    1
     6    13     5    1
     7     3     9    1
     8     3     4    1
     9     1     5    1
    10     5     4    1
    11     5    12    1
    12     4    11    1
    13     4    10    1
