@<TRIPOS>MOLECULE
1
 13 13 0 0 0
SMALL
GASTEIGER

@<TRIPOS>ATOM
      1 O           8.7388    9.6576    2.4616 O.3     1  UNL1       -0.3798
      2 C           8.3937   11.0408    2.3604 C.3     1  UNL1        0.0477
      3 C           9.5488   11.7856    3.0144 C.3     1  UNL1       -0.0274
      4 C          10.7406   10.9718    2.5139 C.3     1  UNL1       -0.0274
      5 C          10.1746    9.5485    2.4419 C.3     1  UNL1        0.0477
      6 H           7.4316   11.1898    2.8540 H       1  UNL1        0.0560
      7 H           8.3088   11.3203    1.2998 H       1  UNL1        0.0560
      8 H           9.5929   12.8319    2.7218 H       1  UNL1        0.0288
      9 H           9.4643   11.7134    4.0982 H       1  UNL1        0.0288
     10 H          11.6006   11.0346    3.1764 H       1  UNL1        0.0288
     11 H          11.0421   11.3132    1.5230 H       1  UNL1        0.0288
     12 H          10.4819    9.0282    1.5271 H       1  UNL1        0.0560
     13 H          10.4648    8.9475    3.3082 H       1  UNL1        0.0560
@<TRIPOS>BOND
     1     7     2    1
     2    11     4    1
     3    12     5    1
     4     2     1    1
     5     2     6    1
     6     2     3    1
     7     5     1    1
     8     5     4    1
     9     5    13    1
    10     4     3    1
    11     4    10    1
    12     8     3    1
    13     3     9    1
