@<TRIPOS>MOLECULE
1
 13 13 0 0 0
SMALL
GASTEIGER

@<TRIPOS>ATOM
      1 O           7.9173    0.3115    6.0662 O.3     1  UNL1       -0.3798
      2 C           8.9250    0.9313    6.8522 C.3     1  UNL1        0.0477
      3 H           8.5405    1.8835    7.2446 H       1  UNL1        0.0560
      4 H           9.7788    1.1184    6.2019 H       1  UNL1        0.0560
      5 C           9.2187   -0.0441    7.9988 C.3     1  UNL1       -0.0274
      6 H          10.0569   -0.6877    7.7399 H       1  UNL1        0.0288
      7 H           9.4616    0.4872    8.9163 H       1  UNL1        0.0288
      8 C           7.9193   -0.8592    8.1176 C.3     1  UNL1       -0.0274
      9 H           7.4454   -0.7427    9.0899 H       1  UNL1        0.0288
     10 H           8.1107   -1.9174    7.9531 H       1  UNL1        0.0288
     11 C           7.0328   -0.2909    6.9993 C.3     1  UNL1        0.0477
     12 H           6.4577   -1.0469    6.4648 H       1  UNL1        0.0560
     13 H           6.3540    0.4764    7.3977 H       1  UNL1        0.0560
@<TRIPOS>BOND
     1     1     2    1
     2     1    11    1
     3     4     2    1
     4    12    11    1
     5     2     3    1
     6     2     5    1
     7    11    13    1
     8    11     8    1
     9     6     5    1
    10    10     8    1
    11     5     8    1
    12     5     7    1
    13     8     9    1
