@<TRIPOS>MOLECULE
1
 13 13 0 0 0
SMALL
GASTEIGER

@<TRIPOS>ATOM
      1 O           6.4869    1.0260    3.0400 O.3     1  UNL1       -0.3798
      2 C           5.6585    1.4738    4.1046 C.3     1  UNL1        0.0477
      3 H           6.2797    2.0644    4.7755 H       1  UNL1        0.0560
      4 H           5.2647    0.6018    4.6402 H       1  UNL1        0.0560
      5 C           4.5237    2.2708    3.4434 C.3     1  UNL1       -0.0274
      6 H           3.5782    2.0964    3.9518 H       1  UNL1        0.0288
      7 H           4.7362    3.3380    3.4669 H       1  UNL1        0.0288
      8 C           4.5114    1.7469    1.9977 C.3     1  UNL1       -0.0274
      9 H           4.7866    2.5367    1.3001 H       1  UNL1        0.0288
     10 H           3.5421    1.3501    1.7062 H       1  UNL1        0.0288
     11 C           5.5824    0.6488    2.0111 C.3     1  UNL1        0.0477
     12 H           5.1408   -0.3250    2.2565 H       1  UNL1        0.0560
     13 H           6.1425    0.5752    1.0802 H       1  UNL1        0.0560
@<TRIPOS>BOND
     1    13    11    1
     2     9     8    1
     3    10     8    1
     4     8    11    1
     5     8     5    1
     6    11    12    1
     7    11     1    1
     8     1     2    1
     9     5     7    1
    10     5     6    1
    11     5     2    1
    12     2     4    1
    13     2     3    1
