@<TRIPOS>MOLECULE
1
 35 37 0 0 0
SMALL
GASTEIGER

@<TRIPOS>ATOM
      1 O           3.7899    5.7515   11.6375 O.3     1  UNL1        0.0000
      2 SI          3.9173    5.6575   13.2317 Si      1  UNL1        0.0000
      3 C           5.7463    5.2701   13.5878 C.ar    1  UNL1        0.0000
      4 C           6.4261    5.6435   14.7411 C.ar    1  UNL1        0.0000
      5 C           7.7637    5.3315   14.9136 C.ar    1  UNL1        0.0000
      6 C           8.4465    4.6366   13.9299 C.ar    1  UNL1        0.0000
      7 C           7.7849    4.2554   12.7738 C.ar    1  UNL1        0.0000
      8 C           6.4483    4.5703   12.6072 C.ar    1  UNL1        0.0000
      9 C           2.8025    4.2147   13.7738 C.ar    1  UNL1        0.0000
     10 C           2.7058    3.1275   12.9067 C.ar    1  UNL1        0.0000
     11 C           1.9091    2.0389   13.2127 C.ar    1  UNL1        0.0000
     12 C           1.1913    2.0184   14.3976 C.ar    1  UNL1        0.0000
     13 C           1.2745    3.0913   15.2685 C.ar    1  UNL1        0.0000
     14 C           2.0734    4.1779   14.9564 C.ar    1  UNL1        0.0000
     15 C           3.3558    7.3333   13.9173 C.ar    1  UNL1        0.0000
     16 C           3.3201    7.6364   15.2725 C.ar    1  UNL1        0.0000
     17 C           2.8918    8.8751   15.7170 C.ar    1  UNL1        0.0000
     18 C           2.4901    9.8375   14.8063 C.ar    1  UNL1        0.0000
     19 C           2.5200    9.5542   13.4507 C.ar    1  UNL1        0.0000
     20 C           2.9490    8.3136   13.0163 C.ar    1  UNL1        0.0000
     21 H           3.2722    3.1441   11.9804 H       1  UNL1        0.0000
     22 H           1.8493    1.2038   12.5292 H       1  UNL1        0.0000
     23 H           0.5686    1.1695   14.6407 H       1  UNL1        0.0000
     24 H           0.7142    3.0806   16.1927 H       1  UNL1        0.0000
     25 H           2.1250    5.0139   15.6382 H       1  UNL1        0.0000
     26 H           5.9258    4.2700   11.7022 H       1  UNL1        0.0000
     27 H           8.3120    3.7100   12.0041 H       1  UNL1        0.0000
     28 H           9.4906    4.3931   14.0635 H       1  UNL1        0.0000
     29 H           8.2761    5.6313   15.8168 H       1  UNL1        0.0000
     30 H           5.9040    6.1917   15.5112 H       1  UNL1        0.0000
     31 H           2.9752    8.0799   11.9553 H       1  UNL1        0.0000
     32 H           2.2070   10.3032   12.7367 H       1  UNL1        0.0000
     33 H           2.1547   10.8047   15.1516 H       1  UNL1        0.0000
     34 H           2.8699    9.0924   16.7755 H       1  UNL1        0.0000
     35 H           3.6311    6.8925   15.9916 H       1  UNL1        0.0000
@<TRIPOS>BOND
     1     1     2    1
     2    26     8    1
     3    31    20    1
     4    21    10    1
     5    27     7    1
     6    22    11    1
     7     8     7   ar
     8     8     3   ar
     9    32    19    1
    10     7     6   ar
    11    10    11   ar
    12    10     9   ar
    13    20    19   ar
    14    20    15   ar
    15    11    12   ar
    16     2     3    1
    17     2     9    1
    18     2    15    1
    19    19    18   ar
    20     3     4   ar
    21     9    14   ar
    22    15    16   ar
    23     6    28    1
    24     6     5   ar
    25    12    23    1
    26    12    13   ar
    27     4     5   ar
    28     4    30    1
    29    18    33    1
    30    18    17   ar
    31     5    29    1
    32    14    13   ar
    33    14    25    1
    34    13    24    1
    35    16    17   ar
    36    16    35    1
    37    17    34    1
