@<TRIPOS>MOLECULE
2
 35 37 0 0 0
SMALL
GASTEIGER

@<TRIPOS>ATOM
      1 SI          0.8967    3.5793    4.4568 Si      1  UNL1        0.0000
      2 O           2.2128    4.0129    3.6330 O.3     1  UNL1        0.0000
      3 C          -0.1015    2.4287    3.3274 C.ar    1  UNL1        0.0000
      4 C          -1.2119    1.7310    3.7894 C.ar    1  UNL1        0.0000
      5 C          -1.9254    0.8910    2.9530 C.ar    1  UNL1        0.0000
      6 C          -1.5369    0.7343    1.6330 C.ar    1  UNL1        0.0000
      7 C          -0.4316    1.4194    1.1564 C.ar    1  UNL1        0.0000
      8 C           0.2763    2.2571    1.9995 C.ar    1  UNL1        0.0000
      9 C          -0.0495    5.1711    4.8801 C.ar    1  UNL1        0.0000
     10 C          -1.4330    5.2122    5.0188 C.ar    1  UNL1        0.0000
     11 C          -2.0829    6.3934    5.3297 C.ar    1  UNL1        0.0000
     12 C          -1.3561    7.5586    5.5085 C.ar    1  UNL1        0.0000
     13 C           0.0219    7.5361    5.3709 C.ar    1  UNL1        0.0000
     14 C           0.6668    6.3528    5.0591 C.ar    1  UNL1        0.0000
     15 C           1.4801    2.6518    6.0160 C.ar    1  UNL1        0.0000
     16 C           2.1309    3.3525    7.0297 C.ar    1  UNL1        0.0000
     17 C           2.6401    2.6962    8.1362 C.ar    1  UNL1        0.0000
     18 C           2.5046    1.3225    8.2523 C.ar    1  UNL1        0.0000
     19 C           1.8582    0.6110    7.2559 C.ar    1  UNL1        0.0000
     20 C           1.3544    1.2714    6.1489 C.ar    1  UNL1        0.0000
     21 H          -1.5142    1.8432    4.8209 H       1  UNL1        0.0000
     22 H          -2.7849    0.3548    3.3296 H       1  UNL1        0.0000
     23 H          -2.0928    0.0789    0.9783 H       1  UNL1        0.0000
     24 H          -0.1244    1.2979    0.1271 H       1  UNL1        0.0000
     25 H           1.1463    2.7942    1.6365 H       1  UNL1        0.0000
     26 H          -2.0072    4.3090    4.8731 H       1  UNL1        0.0000
     27 H          -3.1588    6.4069    5.4327 H       1  UNL1        0.0000
     28 H          -1.8627    8.4810    5.7536 H       1  UNL1        0.0000
     29 H           0.5940    8.4423    5.5102 H       1  UNL1        0.0000
     30 H           1.7444    6.3341    4.9504 H       1  UNL1        0.0000
     31 H           2.2443    4.4234    6.9447 H       1  UNL1        0.0000
     32 H           3.1466    3.2565    8.9087 H       1  UNL1        0.0000
     33 H           2.9021    0.8079    9.1153 H       1  UNL1        0.0000
     34 H           1.7496   -0.4612    7.3402 H       1  UNL1        0.0000
     35 H           0.8550    0.7069    5.3737 H       1  UNL1        0.0000
@<TRIPOS>BOND
     1    24     7    1
     2    23     6    1
     3     7     6   ar
     4     7     8   ar
     5     6     5   ar
     6    25     8    1
     7     8     3   ar
     8     5    22    1
     9     5     4   ar
    10     3     4   ar
    11     3     1    1
    12     2     1    1
    13     4    21    1
    14     1     9    1
    15     1    15    1
    16    26    10    1
    17     9    10   ar
    18     9    14   ar
    19    30    14    1
    20    10    11   ar
    21    14    13   ar
    22    11    27    1
    23    11    12   ar
    24    13    12   ar
    25    13    29    1
    26    35    20    1
    27    12    28    1
    28    15    20   ar
    29    15    16   ar
    30    20    19   ar
    31    31    16    1
    32    16    17   ar
    33    19    34    1
    34    19    18   ar
    35    17    18   ar
    36    17    32    1
    37    18    33    1
