@<TRIPOS>MOLECULE
1
 13 13 0 0 0
SMALL
GASTEIGER

@<TRIPOS>ATOM
      1 O           4.2581    0.5728   35.9554 O.3     1  UNL1       -0.3798
      2 C           4.5043   -0.7026   36.5851 C.3     1  UNL1        0.0477
      3 H           3.5416   -1.0968   36.9342 H       1  UNL1        0.0560
      4 H           5.1713   -0.5391   37.4407 H       1  UNL1        0.0560
      5 C           5.1247   -1.6146   35.5251 C.3     1  UNL1       -0.0274
      6 H           4.8155   -2.6484   35.6532 H       1  UNL1        0.0288
      7 H           6.2146   -1.5636   35.5584 H       1  UNL1        0.0288
      8 C           4.5990   -0.9960   34.2328 C.3     1  UNL1       -0.0274
      9 H           5.1980   -1.2483   33.3614 H       1  UNL1        0.0288
     10 H           3.5608   -1.2911   34.0727 H       1  UNL1        0.0288
     11 C           4.6563    0.4874   34.5747 C.3     1  UNL1        0.0477
     12 H           5.6816    0.8772   34.4841 H       1  UNL1        0.0560
     13 H           3.9648    1.1015   33.9836 H       1  UNL1        0.0560
@<TRIPOS>BOND
     1     9     8    1
     2    13    11    1
     3    10     8    1
     4     8    11    1
     5     8     5    1
     6    12    11    1
     7    11     1    1
     8     5     7    1
     9     5     6    1
    10     5     2    1
    11     1     2    1
    12     2     3    1
    13     2     4    1
