@<TRIPOS>MOLECULE
1
 11 10 0 0 0
SMALL
GASTEIGER

@<TRIPOS>ATOM
      1 O           7.7223   11.5858    8.3035 O.3     1  UNL1       -0.2317
      2 C           8.1375   12.0786    7.0759 C.3     1  UNL1        0.0882
      3 H           8.1601   13.1857    7.1307 H       1  UNL1        0.0622
      4 C           7.1494   11.6401    5.9859 C.3     1  UNL1       -0.0359
      5 H           7.1559   10.5455    5.9456 H       1  UNL1        0.0255
      6 H           7.4340   12.0502    5.0187 H       1  UNL1        0.0255
      7 H           6.1458   11.9817    6.2470 H       1  UNL1        0.0255
      8 C           9.5461   11.5663    6.7444 C.3     1  UNL1       -0.0359
      9 H          10.2438   11.8603    7.5267 H       1  UNL1        0.0255
     10 H           9.8857   11.9787    5.7974 H       1  UNL1        0.0255
     11 H           9.5206   10.4778    6.6821 H       1  UNL1        0.0255
@<TRIPOS>BOND
     1     6     4    1
     2    10     8    1
     3     5     4    1
     4     4     7    1
     5     4     2    1
     6    11     8    1
     7     8     2    1
     8     8     9    1
     9     2     3    1
    10     2     1    1
