@<TRIPOS>MOLECULE
1
 13 13 0 0 0
SMALL
GASTEIGER

@<TRIPOS>ATOM
      1 O           2.8056    6.7913   10.1596 O.3     1  UNL1       -0.3798
      2 C           1.8142    5.7740   10.0481 C.3     1  UNL1        0.0477
      3 C           1.8865    4.9397   11.3418 C.3     1  UNL1       -0.0274
      4 C           2.7791    5.7797   12.2689 C.3     1  UNL1       -0.0274
      5 C           2.8516    7.1240   11.5404 C.3     1  UNL1        0.0477
      6 H           0.8245    6.2416    9.9558 H       1  UNL1        0.0560
      7 H           2.0268    5.1979    9.1463 H       1  UNL1        0.0560
      8 H           2.3174    3.9584   11.1553 H       1  UNL1        0.0288
      9 H           0.8927    4.7989   11.7629 H       1  UNL1        0.0288
     10 H           3.7757    5.3455   12.3415 H       1  UNL1        0.0288
     11 H           2.3689    5.8790   13.2709 H       1  UNL1        0.0288
     12 H           1.9860    7.7511   11.7996 H       1  UNL1        0.0560
     13 H           3.7749    7.6752   11.7238 H       1  UNL1        0.0560
@<TRIPOS>BOND
     1     7     2    1
     2     6     2    1
     3     2     1    1
     4     2     3    1
     5     1     5    1
     6     8     3    1
     7     3     9    1
     8     3     4    1
     9     5    13    1
    10     5    12    1
    11     5     4    1
    12     4    10    1
    13     4    11    1
