@<TRIPOS>MOLECULE
1
 13 13 0 0 0
SMALL
GASTEIGER

@<TRIPOS>ATOM
      1 O           4.7771    1.7845   11.6162 O.3     1  UNL1       -0.3798
      2 C           4.0909    2.8866   12.2030 C.3     1  UNL1        0.0477
      3 C           5.1331    3.6448   13.0397 C.3     1  UNL1       -0.0274
      4 C           6.2535    2.6128   13.2558 C.3     1  UNL1       -0.0274
      5 C           5.6919    1.3382   12.6132 C.3     1  UNL1        0.0477
      6 H           3.2818    2.5093   12.8437 H       1  UNL1        0.0560
      7 H           3.6716    3.4896   11.3970 H       1  UNL1        0.0560
      8 H           5.4993    4.5128   12.4954 H       1  UNL1        0.0288
      9 H           4.7038    3.9858   13.9790 H       1  UNL1        0.0288
     10 H           7.1654    2.9235   12.7485 H       1  UNL1        0.0288
     11 H           6.4800    2.4591   14.3083 H       1  UNL1        0.0288
     12 H           5.1558    0.7337   13.3570 H       1  UNL1        0.0560
     13 H           6.4478    0.7210   12.1247 H       1  UNL1        0.0560
@<TRIPOS>BOND
     1     7     2    1
     2     1     2    1
     3     1     5    1
     4    13     5    1
     5     2     6    1
     6     2     3    1
     7     8     3    1
     8     5     4    1
     9     5    12    1
    10    10     4    1
    11     3     4    1
    12     3     9    1
    13     4    11    1
