@<TRIPOS>MOLECULE
1
 13 13 0 0 0
SMALL
GASTEIGER

@<TRIPOS>ATOM
      1 O           3.7283    3.2641   -0.1405 O.3     1  UNL1       -0.3798
      2 C           3.1401    4.3056   -0.9286 C.3     1  UNL1        0.0477
      3 H           2.6656    5.0167   -0.2519 H       1  UNL1        0.0560
      4 H           2.3855    3.8762   -1.6030 H       1  UNL1        0.0560
      5 C           4.2894    4.8936   -1.7347 C.3     1  UNL1       -0.0274
      6 H           4.8981    5.5401   -1.1023 H       1  UNL1        0.0288
      7 H           3.9493    5.4563   -2.6000 H       1  UNL1        0.0288
      8 C           5.0596    3.6285   -2.1041 C.3     1  UNL1       -0.0274
      9 H           4.6177    3.1629   -2.9855 H       1  UNL1        0.0288
     10 H           6.1114    3.8177   -2.3024 H       1  UNL1        0.0288
     11 C           4.8628    2.7453   -0.8674 C.3     1  UNL1        0.0477
     12 H           4.6681    1.7025   -1.1370 H       1  UNL1        0.0560
     13 H           5.7267    2.7906   -0.1991 H       1  UNL1        0.0560
@<TRIPOS>BOND
     1     9     8    1
     2     7     5    1
     3    10     8    1
     4     8     5    1
     5     8    11    1
     6     5     6    1
     7     5     2    1
     8     4     2    1
     9    12    11    1
    10     2     3    1
    11     2     1    1
    12    11    13    1
    13    11     1    1
