@<TRIPOS>MOLECULE
2
 41 40 0 0 0
SMALL
GASTEIGER

@<TRIPOS>ATOM
      1 SI          1.2432   12.6103   11.2621 Si      1  UNL1        0.0000
      2 O           0.2053   12.7172   12.5352 O.3     1  UNL1        0.0000
      3 C           1.2518   10.7475   10.6625 C.3     1  UNL1        0.0000
      4 C           2.0750    9.8521   11.5944 C.3     1  UNL1        0.0000
      5 C          -0.1745   10.1904   10.6890 C.3     1  UNL1        0.0000
      6 C           1.8293   10.5899    9.2533 C.3     1  UNL1        0.0000
      7 C           2.9730   13.1891   11.9791 C.3     1  UNL1        0.0000
      8 C           2.9581   14.6965   12.2550 C.3     1  UNL1        0.0000
      9 C           4.1453   12.8913   11.0412 C.3     1  UNL1        0.0000
     10 C           3.2414   12.5013   13.3216 C.3     1  UNL1        0.0000
     11 C           0.5339   13.8581    9.9197 C.3     1  UNL1        0.0000
     12 C           0.0108   15.1277   10.6050 C.3     1  UNL1        0.0000
     13 C          -0.6442   13.2461    9.1531 C.3     1  UNL1        0.0000
     14 C           1.5827   14.2615    8.8809 C.3     1  UNL1        0.0000
     15 H           1.7284    9.9449   12.6200 H       1  UNL1        0.0000
     16 H           3.1327   10.0922   11.5459 H       1  UNL1        0.0000
     17 H           1.9615    8.8110   11.2918 H       1  UNL1        0.0000
     18 H          -0.8243   10.7030    9.9885 H       1  UNL1        0.0000
     19 H          -0.5864   10.2934   11.6904 H       1  UNL1        0.0000
     20 H          -0.1668    9.1327   10.4272 H       1  UNL1        0.0000
     21 H           1.2254   11.1014    8.5109 H       1  UNL1        0.0000
     22 H           1.8631    9.5348    8.9833 H       1  UNL1        0.0000
     23 H           2.8399   10.9848    9.1997 H       1  UNL1        0.0000
     24 H           2.0895   14.9620   12.8551 H       1  UNL1        0.0000
     25 H           2.9373   15.2697   11.3331 H       1  UNL1        0.0000
     26 H           3.8562   14.9874   12.8008 H       1  UNL1        0.0000
     27 H           4.0039   13.3580   10.0713 H       1  UNL1        0.0000
     28 H           4.2652   11.8233   10.8897 H       1  UNL1        0.0000
     29 H           5.0713   13.2739   11.4702 H       1  UNL1        0.0000
     30 H           2.3934   12.6402   13.9941 H       1  UNL1        0.0000
     31 H           4.1289   12.9277   13.7890 H       1  UNL1        0.0000
     32 H           3.4052   11.4373   13.2043 H       1  UNL1        0.0000
     33 H          -0.6697   14.8713   11.4146 H       1  UNL1        0.0000
     34 H          -0.5283   15.7457    9.8866 H       1  UNL1        0.0000
     35 H           0.8189   15.7239   11.0144 H       1  UNL1        0.0000
     36 H          -0.3185   12.4326    8.5127 H       1  UNL1        0.0000
     37 H          -1.1048   14.0011    8.5149 H       1  UNL1        0.0000
     38 H          -1.4011   12.8716    9.8330 H       1  UNL1        0.0000
     39 H           1.9958   13.3873    8.3863 H       1  UNL1        0.0000
     40 H           2.3992   14.8166    9.3315 H       1  UNL1        0.0000
     41 H           1.1283   14.8977    8.1212 H       1  UNL1        0.0000
@<TRIPOS>BOND
     1    41    14    1
     2    39    14    1
     3    21     6    1
     4    36    13    1
     5    37    13    1
     6    14    40    1
     7    14    11    1
     8    22     6    1
     9    13    38    1
    10    13    11    1
    11    23     6    1
    12     6     3    1
    13    34    12    1
    14    11    12    1
    15    11     1    1
    16    18     5    1
    17    27     9    1
    18    20     5    1
    19    12    35    1
    20    12    33    1
    21     3     5    1
    22     3     1    1
    23     3     4    1
    24     5    19    1
    25    28     9    1
    26     9    29    1
    27     9     7    1
    28     1     7    1
    29     1     2    1
    30    17     4    1
    31    25     8    1
    32    16     4    1
    33     4    15    1
    34     7     8    1
    35     7    10    1
    36     8    26    1
    37     8    24    1
    38    32    10    1
    39    10    31    1
    40    10    30    1
