@<TRIPOS>MOLECULE
2
 41 40 0 0 0
SMALL
GASTEIGER

@<TRIPOS>ATOM
      1 SI          0.3154   14.9303   16.9233 Si      1  UNL1        0.0000
      2 O          -0.2248   13.9032   15.7800 O.3     1  UNL1        0.0000
      3 C           2.2090   14.5093   17.1897 C.3     1  UNL1        0.0000
      4 C           2.7733   15.0940   18.4860 C.3     1  UNL1        0.0000
      5 C           2.4007   12.9875   17.2016 C.3     1  UNL1        0.0000
      6 C           3.0587   15.0499   16.0364 C.3     1  UNL1        0.0000
      7 C           0.0074   16.7113   16.1501 C.3     1  UNL1        0.0000
      8 C           0.4627   16.7514   14.6858 C.3     1  UNL1        0.0000
      9 C          -1.4916   17.0297   16.1477 C.3     1  UNL1        0.0000
     10 C           0.7294   17.8253   16.9103 C.3     1  UNL1        0.0000
     11 C          -0.7621   14.5777   18.5154 C.3     1  UNL1        0.0000
     12 C          -2.2215   14.3753   18.0981 C.3     1  UNL1        0.0000
     13 C          -0.3195   13.2765   19.1917 C.3     1  UNL1        0.0000
     14 C          -0.6929   15.6978   19.5545 C.3     1  UNL1        0.0000
     15 H           2.6486   16.1732   18.5132 H       1  UNL1        0.0000
     16 H           3.8380   14.8731   18.5618 H       1  UNL1        0.0000
     17 H           2.2849   14.6736   19.3590 H       1  UNL1        0.0000
     18 H           1.9773   12.5351   18.0907 H       1  UNL1        0.0000
     19 H           3.4626   12.7430   17.1742 H       1  UNL1        0.0000
     20 H           1.9207   12.5348   16.3337 H       1  UNL1        0.0000
     21 H           3.0906   16.1357   16.0425 H       1  UNL1        0.0000
     22 H           2.6634   14.7078   15.0857 H       1  UNL1        0.0000
     23 H           4.0842   14.6910   16.1300 H       1  UNL1        0.0000
     24 H           1.5431   16.7100   14.6017 H       1  UNL1        0.0000
     25 H           0.1275   17.6763   14.2148 H       1  UNL1        0.0000
     26 H           0.0383   15.9147   14.1279 H       1  UNL1        0.0000
     27 H          -2.0519   16.2198   15.6873 H       1  UNL1        0.0000
     28 H          -1.6832   17.9427   15.5825 H       1  UNL1        0.0000
     29 H          -1.8627   17.1845   17.1563 H       1  UNL1        0.0000
     30 H           1.8071   17.6996   16.8642 H       1  UNL1        0.0000
     31 H           0.4355   17.8389   17.9555 H       1  UNL1        0.0000
     32 H           0.4864   18.7953   16.4760 H       1  UNL1        0.0000
     33 H          -2.2634   13.7193   17.2312 H       1  UNL1        0.0000
     34 H          -2.7010   15.3152   17.8472 H       1  UNL1        0.0000
     35 H          -2.7884   13.9195   18.9096 H       1  UNL1        0.0000
     36 H          -0.3110   12.4585   18.4778 H       1  UNL1        0.0000
     37 H          -1.0144   13.0183   19.9915 H       1  UNL1        0.0000
     38 H           0.6665   13.3718   19.6356 H       1  UNL1        0.0000
     39 H          -1.0946   16.6280   19.1627 H       1  UNL1        0.0000
     40 H           0.3304   15.8758   19.8721 H       1  UNL1        0.0000
     41 H          -1.2786   15.4261   20.4327 H       1  UNL1        0.0000
@<TRIPOS>BOND
     1    26     8    1
     2    25     8    1
     3    24     8    1
     4     8     7    1
     5    22     6    1
     6    28     9    1
     7    27     9    1
     8     2     1    1
     9     6    21    1
    10     6    23    1
    11     6     3    1
    12     9     7    1
    13     9    29    1
    14     7    10    1
    15     7     1    1
    16    20     5    1
    17    32    10    1
    18    30    10    1
    19    10    31    1
    20     1     3    1
    21     1    11    1
    22    19     5    1
    23     3     5    1
    24     3     4    1
    25     5    18    1
    26    33    12    1
    27    34    12    1
    28    12    11    1
    29    12    35    1
    30    36    13    1
    31     4    15    1
    32     4    16    1
    33     4    17    1
    34    11    13    1
    35    11    14    1
    36    39    14    1
    37    13    38    1
    38    13    37    1
    39    14    40    1
    40    14    41    1
