@<TRIPOS>MOLECULE
2
 41 40 0 0 0
SMALL
GASTEIGER

@<TRIPOS>ATOM
      1 SI         -4.2264   12.8848   13.9399 Si      1  UNL1        0.0000
      2 O          -2.6820   12.8691   14.4381 O.3     1  UNL1        0.0000
      3 C          -5.4258   13.3236   15.4260 C.3     1  UNL1        0.0000
      4 C          -6.8895   13.0682   15.0603 C.3     1  UNL1        0.0000
      5 C          -5.1020   12.5063   16.6798 C.3     1  UNL1        0.0000
      6 C          -5.2940   14.7979   15.8217 C.3     1  UNL1        0.0000
      7 C          -4.2488   14.2807   12.5518 C.3     1  UNL1        0.0000
      8 C          -3.4826   13.7812   11.3247 C.3     1  UNL1        0.0000
      9 C          -5.6477   14.7001   12.0979 C.3     1  UNL1        0.0000
     10 C          -3.5069   15.5322   13.0376 C.3     1  UNL1        0.0000
     11 C          -4.5716   11.0862   13.2151 C.3     1  UNL1        0.0000
     12 C          -4.8760   10.0693   14.3214 C.3     1  UNL1        0.0000
     13 C          -5.7439   11.0558   12.2310 C.3     1  UNL1        0.0000
     14 C          -3.3198   10.5606   12.5028 C.3     1  UNL1        0.0000
     15 H          -7.1784   13.6123   14.1668 H       1  UNL1        0.0000
     16 H          -7.5359   13.3917   15.8766 H       1  UNL1        0.0000
     17 H          -7.0753   12.0121   14.8909 H       1  UNL1        0.0000
     18 H          -5.2474   11.4444   16.5214 H       1  UNL1        0.0000
     19 H          -5.7520   12.8153   17.4995 H       1  UNL1        0.0000
     20 H          -4.0750   12.6731   16.9827 H       1  UNL1        0.0000
     21 H          -5.6951   15.4509   15.0521 H       1  UNL1        0.0000
     22 H          -4.2545   15.0548   16.0022 H       1  UNL1        0.0000
     23 H          -5.8532   14.9886   16.7383 H       1  UNL1        0.0000
     24 H          -2.5048   13.4009   11.6258 H       1  UNL1        0.0000
     25 H          -3.3328   14.5941   10.6128 H       1  UNL1        0.0000
     26 H          -4.0234   12.9918   10.8108 H       1  UNL1        0.0000
     27 H          -6.1927   15.1862   12.9017 H       1  UNL1        0.0000
     28 H          -6.2255   13.8448   11.7605 H       1  UNL1        0.0000
     29 H          -5.5759   15.4078   11.2711 H       1  UNL1        0.0000
     30 H          -2.5196   15.2693   13.4167 H       1  UNL1        0.0000
     31 H          -4.0480   16.0412   13.8272 H       1  UNL1        0.0000
     32 H          -3.3785   16.2362   12.2140 H       1  UNL1        0.0000
     33 H          -5.8227   10.2804   14.8092 H       1  UNL1        0.0000
     34 H          -4.0846   10.0552   15.0659 H       1  UNL1        0.0000
     35 H          -4.9457    9.0695   13.8911 H       1  UNL1        0.0000
     36 H          -5.5370   11.6479   11.3448 H       1  UNL1        0.0000
     37 H          -6.6513   11.4359   12.6909 H       1  UNL1        0.0000
     38 H          -5.9325   10.0318   11.9079 H       1  UNL1        0.0000
     39 H          -3.0364   11.1813   11.6597 H       1  UNL1        0.0000
     40 H          -3.4997    9.5525   12.1285 H       1  UNL1        0.0000
     41 H          -2.4821   10.5175   13.2018 H       1  UNL1        0.0000
@<TRIPOS>BOND
     1    25     8    1
     2    26     8    1
     3    29     9    1
     4     8    24    1
     5     8     7    1
     6    36    13    1
     7    39    14    1
     8    28     9    1
     9    38    13    1
    10     9     7    1
    11     9    27    1
    12    40    14    1
    13    32    10    1
    14    13    37    1
    15    13    11    1
    16    14    41    1
    17    14    11    1
    18     7    10    1
    19     7     1    1
    20    10    30    1
    21    10    31    1
    22    11     1    1
    23    11    12    1
    24    35    12    1
    25     1     2    1
    26     1     3    1
    27    15     4    1
    28    12    33    1
    29    12    34    1
    30    17     4    1
    31    21     6    1
    32     4     3    1
    33     4    16    1
    34     3     6    1
    35     3     5    1
    36     6    22    1
    37     6    23    1
    38    18     5    1
    39     5    20    1
    40     5    19    1
