@<TRIPOS>MOLECULE
1
 64 67 0 0 0
SMALL
GASTEIGER

@<TRIPOS>ATOM
      1 O           1.0050   16.6023    5.2520 O.3     1  UNL1        0.0000
      2 C           1.3632   16.4693    6.5153 C.ar    1  UNL1        0.0000
      3 C           1.9275   17.5640    7.1835 C.ar    1  UNL1        0.0000
      4 BR         -3.0049   12.0581    6.7120 Br      1  UNL1        0.0000
      5 C           2.3319   17.4909    8.4964 C.ar    1  UNL1        0.0000
      6 H           2.7683   18.3575    8.9685 H       1  UNL1        0.0000
      7 C           2.1792   16.3073    9.2071 C.ar    1  UNL1        0.0000
      8 C           2.6358   16.2604   10.6386 C.3     1  UNL1        0.0000
      9 H           3.5202   16.8897   10.7582 H       1  UNL1        0.0000
     10 H           1.8478   16.6817   11.2716 H       1  UNL1        0.0000
     11 C           2.9274   14.8344   11.0880 C.3     1  UNL1        0.0000
     12 H           3.1642   14.8214   12.1530 H       1  UNL1        0.0000
     13 H           3.7899   14.4434   10.5437 H       1  UNL1        0.0000
     14 C           1.7057   13.9738   10.8011 C.3     1  UNL1        0.0000
     15 H           0.8360   14.4187   11.2891 H       1  UNL1        0.0000
     16 H           1.8369   12.9689   11.2063 H       1  UNL1        0.0000
     17 C           1.4655   13.8832    9.2974 C.3     1  UNL1        0.0000
     18 H           2.1845   13.1845    8.8546 H       1  UNL1        0.0000
     19 H           0.4721   13.4718    9.1136 H       1  UNL1        0.0000
     20 C           1.6045   15.2011    8.5817 C.ar    1  UNL1        0.0000
     21 C           1.2038   15.2795    7.2452 C.ar    1  UNL1        0.0000
     22 C           0.6163   14.0881    6.5801 C.ar    1  UNL1        0.0000
     23 C          -0.7087   13.7470    6.8730 C.ar    1  UNL1        0.0000
     24 O          -1.4221   14.4618    7.7608 O.3     1  UNL1        0.0000
     25 SI         -2.5055   15.6993    7.7628 Si      1  UNL1        0.0000
     26 C          -1.2233   12.5813    6.3140 C.ar    1  UNL1        0.0000
     27 BR          2.1008   19.1695    6.1615 Br      1  UNL1        0.0000
     28 C          -0.4451   11.7632    5.5202 C.ar    1  UNL1        0.0000
     29 H          -0.8626   10.8449    5.1343 H       1  UNL1        0.0000
     30 C           0.8727   12.0942    5.2402 C.ar    1  UNL1        0.0000
     31 C           1.7024   11.1247    4.4435 C.3     1  UNL1        0.0000
     32 H           1.9471   10.2793    5.0964 H       1  UNL1        0.0000
     33 H           1.1067   10.7284    3.6186 H       1  UNL1        0.0000
     34 C           2.9926   11.7449    3.9230 C.3     1  UNL1        0.0000
     35 H           2.7690   12.4470    3.1183 H       1  UNL1        0.0000
     36 H           3.6414   10.9630    3.5237 H       1  UNL1        0.0000
     37 C           3.6802   12.4888    5.0595 C.3     1  UNL1        0.0000
     38 H           4.6685   12.8359    4.7537 H       1  UNL1        0.0000
     39 H           3.8123   11.8174    5.9116 H       1  UNL1        0.0000
     40 C           2.8196   13.6776    5.4679 C.3     1  UNL1        0.0000
     41 H           3.2514   14.1819    6.3368 H       1  UNL1        0.0000
     42 H           2.7953   14.3995    4.6422 H       1  UNL1        0.0000
     43 C           1.4032   13.2715    5.7651 C.ar    1  UNL1        0.0000
     44 C          -3.8979   15.4574    6.4855 C.3     1  UNL1        0.0000
     45 H          -3.4885   15.2077    5.5093 H       1  UNL1        0.0000
     46 H          -4.4878   16.3605    6.3677 H       1  UNL1        0.0000
     47 H          -4.5755   14.6567    6.7661 H       1  UNL1        0.0000
     48 C          -1.6077   17.3334    7.3899 C.3     1  UNL1        0.0000
     49 H          -0.7739   17.4975    8.0672 H       1  UNL1        0.0000
     50 H          -2.2762   18.1827    7.4825 H       1  UNL1        0.0000
     51 H          -1.2240   17.3263    6.3663 H       1  UNL1        0.0000
     52 C          -3.1271   15.6387    9.5792 C.3     1  UNL1        0.0000
     53 C          -3.6557   14.2460    9.9288 C.3     1  UNL1        0.0000
     54 H          -2.8727   13.5001    9.8203 H       1  UNL1        0.0000
     55 H          -4.4813   13.9674    9.2788 H       1  UNL1        0.0000
     56 H          -4.0097   14.2213   10.9590 H       1  UNL1        0.0000
     57 C          -4.2563   16.6522    9.7643 C.3     1  UNL1        0.0000
     58 H          -4.6113   16.6422   10.7942 H       1  UNL1        0.0000
     59 H          -5.0950   16.4186    9.1137 H       1  UNL1        0.0000
     60 H          -3.9150   17.6588    9.5337 H       1  UNL1        0.0000
     61 C          -1.9927   15.9858   10.5472 C.3     1  UNL1        0.0000
     62 H          -2.3349   15.9039   11.5787 H       1  UNL1        0.0000
     63 H          -1.6415   17.0026   10.3855 H       1  UNL1        0.0000
     64 H          -1.1548   15.3075   10.4077 H       1  UNL1        0.0000
@<TRIPOS>BOND
     1    35    34    1
     2    36    34    1
     3    33    31    1
     4    34    31    1
     5    34    37    1
     6    31    32    1
     7    31    30    1
     8    42    40    1
     9    38    37    1
    10    37    40    1
    11    37    39    1
    12    29    28    1
    13    30    28   ar
    14    30    43   ar
    15     1     2    1
    16    40    43    1
    17    40    41    1
    18    45    44    1
    19    28    26   ar
    20    43    22   ar
    21    27     3    1
    22    26     4    1
    23    26    23   ar
    24    51    48    1
    25    46    44    1
    26    44    47    1
    27    44    25    1
    28     2     3   ar
    29     2    21   ar
    30    22    23   ar
    31    22    21    1
    32    23    24    1
    33     3     5   ar
    34    21    20   ar
    35    48    50    1
    36    48    25    1
    37    48    49    1
    38    24    25    1
    39    25    52    1
    40     5     6    1
    41     5     7   ar
    42    20     7   ar
    43    20    17    1
    44    18    17    1
    45    19    17    1
    46    59    57    1
    47     7     8    1
    48    55    53    1
    49    17    14    1
    50    60    57    1
    51    52    57    1
    52    52    53    1
    53    52    61    1
    54    57    58    1
    55    54    53    1
    56    53    56    1
    57    63    61    1
    58    64    61    1
    59    13    11    1
    60    61    62    1
    61     8     9    1
    62     8    11    1
    63     8    10    1
    64    14    11    1
    65    14    16    1
    66    14    15    1
    67    11    12    1
