@<TRIPOS>MOLECULE
1
 13 13 0 0 0
SMALL
GASTEIGER

@<TRIPOS>ATOM
      1 O           5.6909    0.8289    4.1358 O.3     1  UNL1       -0.3798
      2 C           6.4291    1.9034    3.5528 C.3     1  UNL1        0.0477
      3 C           7.2583    2.4654    4.7070 C.3     1  UNL1       -0.0274
      4 C           7.5929    1.2091    5.5252 C.3     1  UNL1       -0.0274
      5 C           6.6226    0.1447    4.9782 C.3     1  UNL1        0.0477
      6 H           5.7113    2.6110    3.1364 H       1  UNL1        0.0560
      7 H           7.0811    1.5095    2.7599 H       1  UNL1        0.0560
      8 H           6.6480    3.1538    5.2903 H       1  UNL1        0.0288
      9 H           8.1463    2.9881    4.3593 H       1  UNL1        0.0288
     10 H           7.4396    1.3767    6.5889 H       1  UNL1        0.0288
     11 H           8.6262    0.8996    5.3753 H       1  UNL1        0.0288
     12 H           6.0454   -0.3626    5.7528 H       1  UNL1        0.0560
     13 H           7.1676   -0.5993    4.3811 H       1  UNL1        0.0560
@<TRIPOS>BOND
     1     7     2    1
     2     6     2    1
     3     2     1    1
     4     2     3    1
     5     1     5    1
     6     9     3    1
     7    13     5    1
     8     3     8    1
     9     3     4    1
    10     5     4    1
    11     5    12    1
    12    11     4    1
    13     4    10    1
