@<TRIPOS>MOLECULE
1
 13 13 0 0 0
SMALL
GASTEIGER

@<TRIPOS>ATOM
      1 O           0.7167    0.6725    4.3388 O.3     1  UNL1       -0.3798
      2 C          -0.0604   -0.0615    5.2970 C.3     1  UNL1        0.0477
      3 C          -1.4085   -0.3073    4.6316 C.3     1  UNL1       -0.0274
      4 C          -1.6037    1.0070    3.8808 C.3     1  UNL1       -0.0274
      5 C          -0.1812    1.3199    3.4150 C.3     1  UNL1        0.0477
      6 H          -0.1807    0.5477    6.2034 H       1  UNL1        0.0560
      7 H           0.4896   -0.9699    5.5496 H       1  UNL1        0.0560
      8 H          -2.1973   -0.5118    5.3514 H       1  UNL1        0.0288
      9 H          -1.3347   -1.1370    3.9282 H       1  UNL1        0.0288
     10 H          -1.9644    1.7786    4.5620 H       1  UNL1        0.0288
     11 H          -2.2958    0.9228    3.0468 H       1  UNL1        0.0288
     12 H           0.0428    2.3898    3.4111 H       1  UNL1        0.0560
     13 H           0.0102    0.9103    2.4168 H       1  UNL1        0.0560
@<TRIPOS>BOND
     1    13     5    1
     2    11     4    1
     3    12     5    1
     4     5     4    1
     5     5     1    1
     6     4    10    1
     7     4     3    1
     8     9     3    1
     9     1     2    1
    10     3     2    1
    11     3     8    1
    12     2     7    1
    13     2     6    1
