@<TRIPOS>MOLECULE
1
 13 13 0 0 0
SMALL
GASTEIGER

@<TRIPOS>ATOM
      1 O           3.1519    4.8117    1.5071 O.3     1  UNL1       -0.3798
      2 C           4.4782    5.0536    1.9949 C.3     1  UNL1        0.0477
      3 H           4.6779    4.3452    2.8019 H       1  UNL1        0.0560
      4 H           4.5318    6.0751    2.3984 H       1  UNL1        0.0560
      5 C           5.4027    4.9023    0.7930 C.3     1  UNL1       -0.0274
      6 H           5.6300    3.8510    0.6186 H       1  UNL1        0.0288
      7 H           6.3318    5.4536    0.9145 H       1  UNL1        0.0288
      8 C           4.5236    5.4445   -0.3309 C.3     1  UNL1       -0.0274
      9 H           4.5376    6.5353   -0.3277 H       1  UNL1        0.0288
     10 H           4.8225    5.0912   -1.3148 H       1  UNL1        0.0288
     11 C           3.1464    4.9238    0.0741 C.3     1  UNL1        0.0477
     12 H           2.3330    5.5957   -0.2165 H       1  UNL1        0.0560
     13 H           2.9580    3.9287   -0.3442 H       1  UNL1        0.0560
@<TRIPOS>BOND
     1    10     8    1
     2    13    11    1
     3     8     9    1
     4     8    11    1
     5     8     5    1
     6    12    11    1
     7    11     1    1
     8     6     5    1
     9     5     7    1
    10     5     2    1
    11     1     2    1
    12     2     4    1
    13     2     3    1
