@<TRIPOS>MOLECULE
1
 13 13 0 0 0
SMALL
GASTEIGER

@<TRIPOS>ATOM
      1 O          -0.4234    4.1179    4.9647 O.3     1  UNL1       -0.3798
      2 C          -1.8212    4.4325    4.9154 C.3     1  UNL1        0.0477
      3 H          -2.3775    3.5363    4.6064 H       1  UNL1        0.0560
      4 H          -1.9680    5.2185    4.1713 H       1  UNL1        0.0560
      5 C          -2.2159    4.8409    6.3303 C.3     1  UNL1       -0.0274
      6 H          -1.9626    5.8861    6.5095 H       1  UNL1        0.0288
      7 H          -3.2753    4.6923    6.5243 H       1  UNL1        0.0288
      8 C          -1.3159    3.9291    7.1596 C.3     1  UNL1       -0.0274
      9 H          -1.7360    2.9236    7.2033 H       1  UNL1        0.0288
     10 H          -1.1547    4.2895    8.1722 H       1  UNL1        0.0288
     11 C          -0.0311    3.9402    6.3362 C.3     1  UNL1        0.0477
     12 H           0.5462    3.0156    6.4173 H       1  UNL1        0.0560
     13 H           0.6170    4.7768    6.6253 H       1  UNL1        0.0560
@<TRIPOS>BOND
     1     4     2    1
     2     3     2    1
     3     2     1    1
     4     2     5    1
     5     1    11    1
     6     5     6    1
     7     5     7    1
     8     5     8    1
     9    11    12    1
    10    11    13    1
    11    11     8    1
    12     8     9    1
    13     8    10    1
