@<TRIPOS>MOLECULE
1
 13 13 0 0 0
SMALL
GASTEIGER

@<TRIPOS>ATOM
      1 O           4.3884   10.5475    5.4123 O.3     1  UNL1       -0.3798
      2 C           3.7830   11.8396    5.4269 C.3     1  UNL1        0.0477
      3 H           2.8796   11.8239    4.8013 H       1  UNL1        0.0560
      4 H           3.5029   12.0700    6.4566 H       1  UNL1        0.0560
      5 C           4.8305   12.7950    4.8368 C.3     1  UNL1       -0.0274
      6 H           5.4024   13.2764    5.6284 H       1  UNL1        0.0288
      7 H           4.3603   13.5705    4.2363 H       1  UNL1        0.0288
      8 C           5.7294   11.8698    3.9966 C.3     1  UNL1       -0.0274
      9 H           5.7610   12.1634    2.9501 H       1  UNL1        0.0288
     10 H           6.7469   11.8656    4.3834 H       1  UNL1        0.0288
     11 C           5.0830   10.4888    4.1673 C.3     1  UNL1        0.0477
     12 H           4.3639   10.2938    3.3597 H       1  UNL1        0.0560
     13 H           5.7963    9.6651    4.2130 H       1  UNL1        0.0560
@<TRIPOS>BOND
     1     9     8    1
     2    12    11    1
     3     8    11    1
     4     8    10    1
     5     8     5    1
     6    11    13    1
     7    11     1    1
     8     7     5    1
     9     3     2    1
    10     5     2    1
    11     5     6    1
    12     1     2    1
    13     2     4    1
