@<TRIPOS>MOLECULE
1
 13 13 0 0 0
SMALL
GASTEIGER

@<TRIPOS>ATOM
      1 O           3.1411    6.9380    8.2914 O.3     1  UNL1       -0.3798
      2 C           2.9945    5.6246    7.7432 C.3     1  UNL1        0.0477
      3 H           3.7647    5.4935    6.9802 H       1  UNL1        0.0560
      4 H           1.9997    5.5244    7.2856 H       1  UNL1        0.0560
      5 C           3.1332    4.6934    8.9397 C.3     1  UNL1       -0.0274
      6 H           4.1823    4.6057    9.2205 H       1  UNL1        0.0288
      7 H           2.7269    3.7033    8.7508 H       1  UNL1        0.0288
      8 C           2.3588    5.4627   10.0094 C.3     1  UNL1       -0.0274
      9 H           1.2969    5.2240    9.9521 H       1  UNL1        0.0288
     10 H           2.7076    5.2433   11.0156 H       1  UNL1        0.0288
     11 C           2.6006    6.9288    9.6257 C.3     1  UNL1        0.0477
     12 H           3.3365    7.4136   10.2756 H       1  UNL1        0.0560
     13 H           1.6724    7.5126    9.6414 H       1  UNL1        0.0560
@<TRIPOS>BOND
     1     3     2    1
     2     4     2    1
     3     2     1    1
     4     2     5    1
     5     1    11    1
     6     7     5    1
     7     5     6    1
     8     5     8    1
     9    11    13    1
    10    11     8    1
    11    11    12    1
    12     9     8    1
    13     8    10    1
