@<TRIPOS>MOLECULE
1
 13 13 0 0 0
SMALL
GASTEIGER

@<TRIPOS>ATOM
      1 O           2.5955    4.4540    8.4812 O.3     1  UNL1       -0.3798
      2 C           2.4459    4.4549    9.9099 C.3     1  UNL1        0.0477
      3 H           1.9431    3.5297   10.1998 H       1  UNL1        0.0560
      4 H           3.4377    4.4907   10.3767 H       1  UNL1        0.0560
      5 C           1.6544    5.7177   10.2209 C.3     1  UNL1       -0.0274
      6 H           1.7505    6.0244   11.2590 H       1  UNL1        0.0288
      7 H           0.5996    5.5702    9.9874 H       1  UNL1        0.0288
      8 C           2.2876    6.7053    9.2437 C.3     1  UNL1       -0.0274
      9 H           1.6278    7.5298    8.9853 H       1  UNL1        0.0288
     10 H           3.2054    7.1134    9.6672 H       1  UNL1        0.0288
     11 C           2.6009    5.8232    8.0310 C.3     1  UNL1        0.0477
     12 H           3.5769    6.0527    7.5923 H       1  UNL1        0.0560
     13 H           1.8333    5.9164    7.2545 H       1  UNL1        0.0560
@<TRIPOS>BOND
     1    13    11    1
     2    12    11    1
     3    11     1    1
     4    11     8    1
     5     1     2    1
     6     9     8    1
     7     8    10    1
     8     8     5    1
     9     2     3    1
    10     2     5    1
    11     2     4    1
    12     7     5    1
    13     5     6    1
