@<TRIPOS>MOLECULE
2
 23 22 0 0 0
SMALL
GASTEIGER

@<TRIPOS>ATOM
      1 SI          3.2671   -1.5206    9.4654 Si      1  UNL1        0.0000
      2 O           3.3874    0.0722    9.5960 O.3     1  UNL1        0.0000
      3 C           3.9490   -2.3277   11.0657 C.3     1  UNL1        0.0000
      4 H           3.5278   -1.8358   11.9381 H       1  UNL1        0.0000
      5 H           5.0298   -2.2305   11.1227 H       1  UNL1        0.0000
      6 H           3.7131   -3.3845   11.1261 H       1  UNL1        0.0000
      7 C           4.3448   -2.0916    7.9801 C.3     1  UNL1        0.0000
      8 H           5.3819   -1.7985    8.1204 H       1  UNL1        0.0000
      9 H           4.0056   -1.6566    7.0449 H       1  UNL1        0.0000
     10 H           4.3220   -3.1699    7.8727 H       1  UNL1        0.0000
     11 C           1.3903   -1.8979    9.1942 C.3     1  UNL1        0.0000
     12 C           0.6206   -1.3440   10.3968 C.3     1  UNL1        0.0000
     13 H          -0.4540   -1.4305   10.2344 H       1  UNL1        0.0000
     14 H           0.8679   -0.2856   10.5429 H       1  UNL1        0.0000
     15 H           0.8733   -1.8888   11.3042 H       1  UNL1        0.0000
     16 C           1.0843   -3.3886    9.0365 C.3     1  UNL1        0.0000
     17 H           0.0152   -3.5449    8.8946 H       1  UNL1        0.0000
     18 H           1.3945   -3.9423    9.9193 H       1  UNL1        0.0000
     19 H           1.6065   -3.8002    8.1757 H       1  UNL1        0.0000
     20 C           0.9128   -1.1476    7.9472 C.3     1  UNL1        0.0000
     21 H          -0.1565   -1.2991    7.7987 H       1  UNL1        0.0000
     22 H           1.4319   -1.4958    7.0556 H       1  UNL1        0.0000
     23 H           1.0961   -0.0788    8.0737 H       1  UNL1        0.0000
@<TRIPOS>BOND
     1     9     7    1
     2    22    20    1
     3    21    20    1
     4    10     7    1
     5    20    23    1
     6    20    11    1
     7     7     8    1
     8     7     1    1
     9    19    16    1
    10    17    16    1
    11    16    11    1
    12    16    18    1
    13    11     1    1
    14    11    12    1
    15     1     2    1
    16     1     3    1
    17    13    12    1
    18    12    14    1
    19    12    15    1
    20     3     5    1
    21     3     6    1
    22     3     4    1
