@<TRIPOS>MOLECULE
2
 23 22 0 0 0
SMALL
GASTEIGER

@<TRIPOS>ATOM
      1 SI          3.5667    5.1414   10.2097 Si      1  UNL1        0.0000
      2 O           3.5476    3.5492   10.0279 O.3     1  UNL1        0.0000
      3 C           3.4691    5.9682    8.4823 C.3     1  UNL1        0.0000
      4 H           4.3918    5.8228    7.9271 H       1  UNL1        0.0000
      5 H           3.2934    7.0362    8.5486 H       1  UNL1        0.0000
      6 H           2.6633    5.5275    7.9023 H       1  UNL1        0.0000
      7 C           5.2297    5.6391   11.0350 C.3     1  UNL1        0.0000
      8 H           6.0725    5.2972   10.4400 H       1  UNL1        0.0000
      9 H           5.3332    5.2086   12.0264 H       1  UNL1        0.0000
     10 H           5.3122    6.7156   11.1299 H       1  UNL1        0.0000
     11 C           2.0421    5.5747   11.3172 C.3     1  UNL1        0.0000
     12 C           1.9006    7.0716   11.6000 C.3     1  UNL1        0.0000
     13 H           1.0253    7.2609   12.2210 H       1  UNL1        0.0000
     14 H           1.7880    7.6308   10.6744 H       1  UNL1        0.0000
     15 H           2.7771    7.4495   12.1215 H       1  UNL1        0.0000
     16 C           0.7844    5.0689   10.6043 C.3     1  UNL1        0.0000
     17 H          -0.0903    5.1876   11.2441 H       1  UNL1        0.0000
     18 H           0.8966    4.0057   10.3595 H       1  UNL1        0.0000
     19 H           0.6109    5.6216    9.6834 H       1  UNL1        0.0000
     20 C           2.1643    4.8178   12.6431 C.3     1  UNL1        0.0000
     21 H           1.2900    5.0023   13.2678 H       1  UNL1        0.0000
     22 H           3.0483    5.1319   13.1956 H       1  UNL1        0.0000
     23 H           2.2276    3.7460   12.4455 H       1  UNL1        0.0000
@<TRIPOS>BOND
     1     6     3    1
     2     4     3    1
     3     3     5    1
     4     3     1    1
     5    19    16    1
     6     2     1    1
     7     1     7    1
     8     1    11    1
     9    18    16    1
    10     8     7    1
    11    16    17    1
    12    16    11    1
    13    14    12    1
    14     7    10    1
    15     7     9    1
    16    11    12    1
    17    11    20    1
    18    12    15    1
    19    12    13    1
    20    23    20    1
    21    20    22    1
    22    20    21    1
