@<TRIPOS>MOLECULE
1
 13 13 0 0 0
SMALL
GASTEIGER

@<TRIPOS>ATOM
      1 O          16.3405   16.8162    6.7126 O.3     1  UNL1       -0.3798
      2 C          17.3163   17.8417    6.5134 C.3     1  UNL1        0.0477
      3 H          18.2871   17.4354    6.8037 H       1  UNL1        0.0560
      4 H          17.0781   18.6954    7.1601 H       1  UNL1        0.0560
      5 C          15.3464   17.0193    5.7102 C.3     1  UNL1        0.0477
      6 H          14.7612   16.1035    5.6270 H       1  UNL1        0.0560
      7 H          14.6963   17.8574    5.9983 H       1  UNL1        0.0560
      8 C          16.1436   17.3652    4.4580 C.3     1  UNL1       -0.0274
      9 H          16.5533   16.4517    4.0277 H       1  UNL1        0.0288
     10 H          15.5415   17.8751    3.7102 H       1  UNL1        0.0288
     11 C          17.2543   18.2523    5.0298 C.3     1  UNL1       -0.0274
     12 H          16.9941   19.3062    4.9393 H       1  UNL1        0.0288
     13 H          18.2045   18.0920    4.5256 H       1  UNL1        0.0288
@<TRIPOS>BOND
     1    10     8    1
     2     9     8    1
     3     8    11    1
     4     8     5    1
     5    13    11    1
     6    12    11    1
     7    11     2    1
     8     6     5    1
     9     5     7    1
    10     5     1    1
    11     2     1    1
    12     2     3    1
    13     2     4    1
