@<TRIPOS>MOLECULE
1
 13 13 0 0 0
SMALL
GASTEIGER

@<TRIPOS>ATOM
      1 O           5.5103   11.6514   11.4069 O.3     1  UNL1       -0.3798
      2 C           4.3995   12.4255   11.8460 C.3     1  UNL1        0.0477
      3 H           4.5618   12.7653   12.8764 H       1  UNL1        0.0560
      4 H           3.5134   11.7902   11.7994 H       1  UNL1        0.0560
      5 C           4.3372   13.6261   10.9015 C.3     1  UNL1       -0.0274
      6 H           3.7724   13.3729   10.0038 H       1  UNL1        0.0288
      7 H           3.8628   14.4823   11.3751 H       1  UNL1        0.0288
      8 C           5.8165   13.8758   10.5779 C.3     1  UNL1       -0.0274
      9 H           6.1962   14.7383   11.1225 H       1  UNL1        0.0288
     10 H           5.9734   14.0512    9.5150 H       1  UNL1        0.0288
     11 C           6.5272   12.5945   11.0522 C.3     1  UNL1        0.0477
     12 H           7.1507   12.1315   10.2843 H       1  UNL1        0.0560
     13 H           7.1493   12.8062   11.9281 H       1  UNL1        0.0560
@<TRIPOS>BOND
     1    10     8    1
     2     6     5    1
     3    12    11    1
     4     8     5    1
     5     8    11    1
     6     8     9    1
     7     5     7    1
     8     5     2    1
     9    11     1    1
    10    11    13    1
    11     1     2    1
    12     4     2    1
    13     2     3    1
