@<TRIPOS>MOLECULE
1
 13 13 0 0 0
SMALL
GASTEIGER

@<TRIPOS>ATOM
      1 O          16.1343   12.5522    9.9094 O.3     1  UNL1       -0.3798
      2 C          15.0178   12.0599   10.6521 C.3     1  UNL1        0.0477
      3 H          14.1097   12.5045   10.2388 H       1  UNL1        0.0560
      4 H          15.1162   12.3563   11.7075 H       1  UNL1        0.0560
      5 C          15.0841   10.5429   10.5268 C.3     1  UNL1       -0.0274
      6 H          14.5281   10.0366   11.3120 H       1  UNL1        0.0288
      7 H          14.7051   10.2272    9.5552 H       1  UNL1        0.0288
      8 C          16.5911   10.3091   10.6117 C.3     1  UNL1       -0.0274
      9 H          16.9027    9.3870   10.1274 H       1  UNL1        0.0288
     10 H          16.9097   10.2808   11.6543 H       1  UNL1        0.0288
     11 C          17.1630   11.5463    9.9110 C.3     1  UNL1        0.0477
     12 H          18.0443   11.9436   10.4256 H       1  UNL1        0.0560
     13 H          17.4259   11.3391    8.8671 H       1  UNL1        0.0560
@<TRIPOS>BOND
     1    13    11    1
     2     7     5    1
     3     1    11    1
     4     1     2    1
     5    11    12    1
     6    11     8    1
     7     9     8    1
     8     3     2    1
     9     5     8    1
    10     5     2    1
    11     5     6    1
    12     8    10    1
    13     2     4    1
