@<TRIPOS>MOLECULE
1
 35 37 0 0 0
SMALL
GASTEIGER

@<TRIPOS>ATOM
      1 O           1.7702    2.8374    9.3054 O.3     1  UNL1        0.0000
      2 SI          2.7572    2.2599   10.3754 Si      1  UNL1        0.0000
      3 C           4.1744    1.3178    9.5328 C.ar    1  UNL1        0.0000
      4 C           5.0070    0.4635   10.2446 C.ar    1  UNL1        0.0000
      5 C           6.0241   -0.2325    9.6161 C.ar    1  UNL1        0.0000
      6 C           6.2230   -0.0896    8.2529 C.ar    1  UNL1        0.0000
      7 C           5.3972    0.7499    7.5247 C.ar    1  UNL1        0.0000
      8 C           4.3868    1.4426    8.1663 C.ar    1  UNL1        0.0000
      9 C           3.4734    3.6039   11.5193 C.ar    1  UNL1        0.0000
     10 C           2.6134    4.5496   12.0669 C.ar    1  UNL1        0.0000
     11 C           3.0755    5.5492   12.9048 C.ar    1  UNL1        0.0000
     12 C           4.4251    5.6255   13.2063 C.ar    1  UNL1        0.0000
     13 C           5.2993    4.6989   12.6638 C.ar    1  UNL1        0.0000
     14 C           4.8238    3.7003   11.8317 C.ar    1  UNL1        0.0000
     15 C           1.8968    0.9878   11.5156 C.ar    1  UNL1        0.0000
     16 C           1.5547    1.2843   12.8305 C.ar    1  UNL1        0.0000
     17 C           0.8914    0.3676   13.6288 C.ar    1  UNL1        0.0000
     18 C           0.5532   -0.8751   13.1218 C.ar    1  UNL1        0.0000
     19 C           0.9024   -1.1982   11.8211 C.ar    1  UNL1        0.0000
     20 C           1.5703   -0.2759   11.0353 C.ar    1  UNL1        0.0000
     21 H           4.8498    0.3383   11.3077 H       1  UNL1        0.0000
     22 H           6.6638   -0.8915   10.1877 H       1  UNL1        0.0000
     23 H           7.0164   -0.6339    7.7597 H       1  UNL1        0.0000
     24 H           5.5449    0.8604    6.4582 H       1  UNL1        0.0000
     25 H           3.7314    2.0940    7.6040 H       1  UNL1        0.0000
     26 H           1.5594    4.4981   11.8237 H       1  UNL1        0.0000
     27 H           2.3864    6.2704   13.3255 H       1  UNL1        0.0000
     28 H           4.7930    6.4046   13.8597 H       1  UNL1        0.0000
     29 H           6.3549    4.7565   12.8924 H       1  UNL1        0.0000
     30 H           5.5149    2.9824   11.4119 H       1  UNL1        0.0000
     31 H           1.8211    2.2492   13.2406 H       1  UNL1        0.0000
     32 H           0.6359    0.6234   14.6483 H       1  UNL1        0.0000
     33 H           0.0285   -1.5911   13.7391 H       1  UNL1        0.0000
     34 H           0.6551   -2.1727   11.4215 H       1  UNL1        0.0000
     35 H           1.8564   -0.5408   10.0276 H       1  UNL1        0.0000
@<TRIPOS>BOND
     1    24     7    1
     2     7     8   ar
     3     7     6   ar
     4    25     8    1
     5    23     6    1
     6     8     3   ar
     7     6     5   ar
     8     1     2    1
     9     3     4   ar
    10     3     2    1
    11     5    22    1
    12     5     4   ar
    13    35    20    1
    14     4    21    1
    15     2    15    1
    16     2     9    1
    17    20    15   ar
    18    20    19   ar
    19    30    14    1
    20    34    19    1
    21    15    16   ar
    22     9    14   ar
    23     9    10   ar
    24    19    18   ar
    25    26    10    1
    26    14    13   ar
    27    10    11   ar
    28    13    29    1
    29    13    12   ar
    30    16    31    1
    31    16    17   ar
    32    11    12   ar
    33    11    27    1
    34    18    17   ar
    35    18    33    1
    36    12    28    1
    37    17    32    1
