@<TRIPOS>MOLECULE
1
 13 13 0 0 0
SMALL
GASTEIGER

@<TRIPOS>ATOM
      1 O           8.5346    0.6080    0.6752 O.3     1  UNL1       -0.3798
      2 C           9.0971   -0.0139   -0.4801 C.3     1  UNL1        0.0477
      3 H           8.4643   -0.8648   -0.7720 H       1  UNL1        0.0560
      4 H          10.0897   -0.3794   -0.2038 H       1  UNL1        0.0560
      5 C           9.1275    1.0542   -1.5902 C.3     1  UNL1       -0.0274
      6 H           8.6652    0.6762   -2.5012 H       1  UNL1        0.0288
      7 H          10.1472    1.3545   -1.8196 H       1  UNL1        0.0288
      8 C           8.3308    2.2250   -0.9957 C.3     1  UNL1       -0.0274
      9 H           9.0115    2.9910   -0.6266 H       1  UNL1        0.0288
     10 H           7.6401    2.6698   -1.7084 H       1  UNL1        0.0288
     11 C           7.6113    1.5749    0.1855 C.3     1  UNL1        0.0477
     12 H           7.3866    2.2659    1.0005 H       1  UNL1        0.0560
     13 H           6.6901    1.0690   -0.1426 H       1  UNL1        0.0560
@<TRIPOS>BOND
     1     6     5    1
     2     7     5    1
     3    10     8    1
     4     5     8    1
     5     5     2    1
     6     8     9    1
     7     8    11    1
     8     3     2    1
     9     2     4    1
    10     2     1    1
    11    13    11    1
    12    11     1    1
    13    11    12    1
