@<TRIPOS>MOLECULE
1
 13 13 0 0 0
SMALL
GASTEIGER

@<TRIPOS>ATOM
      1 O          10.1234   -0.0235    5.4405 O.3     1  UNL1       -0.3798
      2 C           9.6613    0.7514    6.5593 C.3     1  UNL1        0.0477
      3 H           8.9265    1.4752    6.1956 H       1  UNL1        0.0560
      4 H          10.5192    1.2880    6.9886 H       1  UNL1        0.0560
      5 C           9.0960   -0.2507    7.5591 C.3     1  UNL1       -0.0274
      6 H           8.0769   -0.5246    7.2836 H       1  UNL1        0.0288
      7 H           9.1031    0.1285    8.5781 H       1  UNL1        0.0288
      8 C          10.0328   -1.4372    7.3487 C.3     1  UNL1       -0.0274
      9 H          10.9800   -1.2655    7.8614 H       1  UNL1        0.0288
     10 H           9.6124   -2.3808    7.6879 H       1  UNL1        0.0288
     11 C          10.2258   -1.4027    5.8348 C.3     1  UNL1        0.0477
     12 H          11.2004   -1.7778    5.5080 H       1  UNL1        0.0560
     13 H           9.4339   -1.9700    5.3279 H       1  UNL1        0.0560
@<TRIPOS>BOND
     1    13    11    1
     2     1    11    1
     3     1     2    1
     4    12    11    1
     5    11     8    1
     6     3     2    1
     7     2     4    1
     8     2     5    1
     9     6     5    1
    10     8     5    1
    11     8    10    1
    12     8     9    1
    13     5     7    1
