@<TRIPOS>MOLECULE
1
 13 13 0 0 0
SMALL
GASTEIGER

@<TRIPOS>ATOM
      1 O           5.9727    5.3439   16.3159 O.3     1  UNL1       -0.3798
      2 C           6.5102    6.6444   16.1014 C.3     1  UNL1        0.0477
      3 C           7.5897    6.8370   17.1737 C.3     1  UNL1       -0.0274
      4 C           7.1378    5.9001   18.3055 C.3     1  UNL1       -0.0274
      5 C           5.8895    5.2093   17.7327 C.3     1  UNL1        0.0477
      6 H           6.8936    6.6803   15.0819 H       1  UNL1        0.0560
      7 H           5.7151    7.3912   16.2240 H       1  UNL1        0.0560
      8 H           7.6553    7.8768   17.4898 H       1  UNL1        0.0288
      9 H           8.5579    6.5279   16.7860 H       1  UNL1        0.0288
     10 H           7.9051    5.1595   18.5193 H       1  UNL1        0.0288
     11 H           6.9046    6.4414   19.2212 H       1  UNL1        0.0288
     12 H           5.8482    4.1394   17.9553 H       1  UNL1        0.0560
     13 H           4.9781    5.7055   18.0927 H       1  UNL1        0.0560
@<TRIPOS>BOND
     1     6     2    1
     2     2     7    1
     3     2     1    1
     4     2     3    1
     5     1     5    1
     6     9     3    1
     7     3     8    1
     8     3     4    1
     9     5    12    1
    10     5    13    1
    11     5     4    1
    12     4    10    1
    13     4    11    1
