@<TRIPOS>MOLECULE
1
 13 13 0 0 0
SMALL
GASTEIGER

@<TRIPOS>ATOM
      1 O           6.9727    9.8465   16.3067 O.3     1  UNL1       -0.3798
      2 C           7.9603   10.2133   15.3298 C.3     1  UNL1        0.0477
      3 H           8.1320    9.3562   14.6748 H       1  UNL1        0.0560
      4 H           8.8969   10.4649   15.8446 H       1  UNL1        0.0560
      5 C           7.4021   11.4270   14.5968 C.3     1  UNL1       -0.0274
      6 H           6.7119   11.1156   13.8122 H       1  UNL1        0.0288
      7 H           8.1849   12.0375   14.1556 H       1  UNL1        0.0288
      8 C           6.6507   12.1375   15.7196 C.3     1  UNL1       -0.0274
      9 H           5.8707   12.8003   15.3555 H       1  UNL1        0.0288
     10 H           7.3444   12.7158   16.3302 H       1  UNL1        0.0288
     11 C           6.0821   10.9642   16.5140 C.3     1  UNL1        0.0477
     12 H           6.0191   11.1698   17.5871 H       1  UNL1        0.0560
     13 H           5.0869   10.6801   16.1487 H       1  UNL1        0.0560
@<TRIPOS>BOND
     1     6     5    1
     2     7     5    1
     3     5     2    1
     4     5     8    1
     5     3     2    1
     6     2     4    1
     7     2     1    1
     8     9     8    1
     9     8    10    1
    10     8    11    1
    11    13    11    1
    12     1    11    1
    13    11    12    1
