@<TRIPOS>MOLECULE
1
 13 13 0 0 0
SMALL
GASTEIGER

@<TRIPOS>ATOM
      1 O           7.6824    9.8172   19.4291 O.3     1  UNL1       -0.3798
      2 C           8.9773   10.3932   19.1583 C.3     1  UNL1        0.0477
      3 H           8.8585   11.2097   18.4377 H       1  UNL1        0.0560
      4 H           9.6017    9.6083   18.7188 H       1  UNL1        0.0560
      5 C           9.5470   10.8910   20.4902 C.3     1  UNL1       -0.0274
      6 H           9.4019   11.9663   20.5938 H       1  UNL1        0.0288
      7 H          10.6077   10.6747   20.5811 H       1  UNL1        0.0288
      8 C           8.7033   10.1407   21.5181 C.3     1  UNL1       -0.0274
      9 H           9.0922    9.1341   21.6652 H       1  UNL1        0.0288
     10 H           8.6441   10.6516   22.4748 H       1  UNL1        0.0288
     11 C           7.3619   10.0763   20.8038 C.3     1  UNL1        0.0477
     12 H           6.7126    9.2742   21.1594 H       1  UNL1        0.0560
     13 H           6.8333   11.0363   20.8801 H       1  UNL1        0.0560
@<TRIPOS>BOND
     1     3     2    1
     2     4     2    1
     3     2     1    1
     4     2     5    1
     5     1    11    1
     6     5     7    1
     7     5     6    1
     8     5     8    1
     9    11    13    1
    10    11    12    1
    11    11     8    1
    12     8     9    1
    13     8    10    1
