@<TRIPOS>MOLECULE
1
 13 13 0 0 0
SMALL
GASTEIGER

@<TRIPOS>ATOM
      1 O           5.4040    6.8745   15.6446 O.3     1  UNL1       -0.3798
      2 C           5.4123    7.4955   14.3452 C.3     1  UNL1        0.0477
      3 H           6.4177    7.3799   13.9221 H       1  UNL1        0.0560
      4 H           5.1942    8.5608   14.4604 H       1  UNL1        0.0560
      5 C           4.3707    6.7737   13.4914 C.3     1  UNL1       -0.0274
      6 H           3.4050    7.2737   13.5635 H       1  UNL1        0.0288
      7 H           4.6635    6.7254   12.4462 H       1  UNL1        0.0288
      8 C           4.3057    5.4023   14.1585 C.3     1  UNL1       -0.0274
      9 H           3.3733    4.8793   13.9671 H       1  UNL1        0.0288
     10 H           5.1382    4.7778   13.8339 H       1  UNL1        0.0288
     11 C           4.4672    5.7815   15.6241 C.3     1  UNL1        0.0477
     12 H           4.8704    4.9771   16.2426 H       1  UNL1        0.0560
     13 H           3.5113    6.1195   16.0439 H       1  UNL1        0.0560
@<TRIPOS>BOND
     1     7     5    1
     2     5     6    1
     3     5     8    1
     4     5     2    1
     5    10     8    1
     6     3     2    1
     7     9     8    1
     8     8    11    1
     9     2     4    1
    10     2     1    1
    11    11     1    1
    12    11    13    1
    13    11    12    1
