@<TRIPOS>MOLECULE
1
 10 9 0 0 0
SMALL
GASTEIGER

@<TRIPOS>ATOM
      1 O           2.3092    3.7170    3.1842 O.3     1  UNL1       -0.2210
      2 C           3.3516    4.6242    3.1416 C.3     1  UNL1        0.1433
      3 H           3.1232    5.4942    3.7913 H       1  UNL1        0.0730
      4 H           4.2650    4.1363    3.5358 H       1  UNL1        0.0730
      5 C           3.6061    5.1006    1.7861 C.1     1  UNL1       -0.0710
      6 C           3.7358    5.4334    0.6413 C.1     1  UNL1       -0.1032
      7 C           3.9341    5.8619   -0.7251 C.3     1  UNL1       -0.0025
      8 H           4.3948    6.8490   -0.7437 H       1  UNL1        0.0362
      9 H           2.9750    5.9089   -1.2396 H       1  UNL1        0.0362
     10 H           4.5819    5.1578   -1.2461 H       1  UNL1        0.0362
@<TRIPOS>BOND
     1    10     7    1
     2     9     7    1
     3     8     7    1
     4     7     6    1
     5     6     5    3
     6     5     2    1
     7     2     1    1
     8     2     4    1
     9     2     3    1
