@<TRIPOS>MOLECULE
2
 14 13 0 0 0
SMALL
GASTEIGER

@<TRIPOS>ATOM
      1 SI          1.5000   -1.1263    1.8351 Si      1  UNL1        0.0000
      2 O           2.3931   -0.2118    2.8234 O.3     1  UNL1        0.0000
      3 C           0.5736   -0.0297    0.5732 C.3     1  UNL1        0.0000
      4 C           0.2962   -2.2419    2.8114 C.3     1  UNL1        0.0000
      5 C           2.6812   -2.2609    0.8192 C.3     1  UNL1        0.0000
      6 H          -0.0620    0.6976    1.0675 H       1  UNL1        0.0000
      7 H           1.2553    0.5081   -0.0791 H       1  UNL1        0.0000
      8 H          -0.0595   -0.6488   -0.0545 H       1  UNL1        0.0000
      9 H           0.3375   -2.0066    3.8700 H       1  UNL1        0.0000
     10 H          -0.7256   -2.0913    2.4781 H       1  UNL1        0.0000
     11 H           0.5314   -3.2955    2.6917 H       1  UNL1        0.0000
     12 H           2.0869   -2.9344    0.2104 H       1  UNL1        0.0000
     13 H           3.3195   -1.6968    0.1456 H       1  UNL1        0.0000
     14 H           3.3237   -2.8707    1.4472 H       1  UNL1        0.0000
@<TRIPOS>BOND
     1     7     3    1
     2     8     3    1
     3    13     5    1
     4    12     5    1
     5     3     6    1
     6     3     1    1
     7     5    14    1
     8     5     1    1
     9     1     4    1
    10     1     2    1
    11    10     4    1
    12    11     4    1
    13     4     9    1
