@<TRIPOS>MOLECULE
1
 13 13 0 0 0
SMALL
GASTEIGER

@<TRIPOS>ATOM
      1 O           9.4238   10.1662    7.1386 O.3     1  UNL1       -0.3798
      2 C          10.8452   10.0816    7.2832 C.3     1  UNL1        0.0477
      3 H          11.2280   11.0534    7.6172 H       1  UNL1        0.0560
      4 H          11.2848    9.8223    6.3178 H       1  UNL1        0.0560
      5 C          11.0560    9.0316    8.3686 C.3     1  UNL1       -0.0274
      6 H          12.0335    9.1177    8.8356 H       1  UNL1        0.0288
      7 H          10.9560    8.0297    7.9497 H       1  UNL1        0.0288
      8 C           9.9069    9.3364    9.3354 C.3     1  UNL1       -0.0274
      9 H           9.4737    8.4262    9.7435 H       1  UNL1        0.0288
     10 H          10.2487    9.9573   10.1613 H       1  UNL1        0.0288
     11 C           8.8950   10.1154    8.4768 C.3     1  UNL1        0.0477
     12 H           7.9204    9.6266    8.4256 H       1  UNL1        0.0560
     13 H           8.7718   11.1370    8.8568 H       1  UNL1        0.0560
@<TRIPOS>BOND
     1     4     2    1
     2     1     2    1
     3     1    11    1
     4     2     3    1
     5     2     5    1
     6     7     5    1
     7     5     6    1
     8     5     8    1
     9    12    11    1
    10    11    13    1
    11    11     8    1
    12     8     9    1
    13     8    10    1
