@<TRIPOS>MOLECULE
1
 13 13 0 0 0
SMALL
GASTEIGER

@<TRIPOS>ATOM
      1 O          10.5126    1.0449    7.8889 O.3     1  UNL1       -0.3798
      2 C          11.4961    0.2834    8.5837 C.3     1  UNL1        0.0477
      3 H          12.3105    0.9461    8.9124 H       1  UNL1        0.0560
      4 H          11.8825   -0.4664    7.8927 H       1  UNL1        0.0560
      5 C          10.7609   -0.3102    9.7861 C.3     1  UNL1       -0.0274
      6 H          10.2733   -1.2406    9.4976 H       1  UNL1        0.0288
      7 H          11.4345   -0.5074   10.6169 H       1  UNL1        0.0288
      8 C           9.7124    0.7627   10.1130 C.3     1  UNL1       -0.0274
      9 H           9.9516    1.2955   11.0316 H       1  UNL1        0.0288
     10 H           8.7240    0.3209   10.2175 H       1  UNL1        0.0288
     11 C           9.7681    1.7124    8.9036 C.3     1  UNL1        0.0477
     12 H           8.7856    1.9500    8.4946 H       1  UNL1        0.0560
     13 H          10.2788    2.6456    9.1761 H       1  UNL1        0.0560
@<TRIPOS>BOND
     1     1     2    1
     2     1    11    1
     3     4     2    1
     4    12    11    1
     5     2     3    1
     6     2     5    1
     7    11    13    1
     8    11     8    1
     9     6     5    1
    10     5     8    1
    11     5     7    1
    12     8    10    1
    13     8     9    1
