@<TRIPOS>MOLECULE
1
 13 13 0 0 0
SMALL
GASTEIGER

@<TRIPOS>ATOM
      1 O          -3.8310    0.3653   10.6973 O.3     1  UNL1       -0.3798
      2 C          -4.5701   -0.0611    9.5536 C.3     1  UNL1        0.0477
      3 C          -4.5983   -1.5901    9.6388 C.3     1  UNL1       -0.0274
      4 C          -4.5360   -1.8610   11.1510 C.3     1  UNL1       -0.0274
      5 C          -4.2638   -0.4760   11.7645 C.3     1  UNL1        0.0477
      6 H          -4.0560    0.3154    8.6605 H       1  UNL1        0.0560
      7 H          -5.5913    0.3476    9.6044 H       1  UNL1        0.0560
      8 H          -3.7236   -2.0053    9.1400 H       1  UNL1        0.0288
      9 H          -5.4915   -2.0038    9.1763 H       1  UNL1        0.0288
     10 H          -3.7327   -2.5554   11.3884 H       1  UNL1        0.0288
     11 H          -5.4681   -2.2767   11.5290 H       1  UNL1        0.0288
     12 H          -3.4764   -0.4923   12.5212 H       1  UNL1        0.0560
     13 H          -5.1844   -0.0613   12.2018 H       1  UNL1        0.0560
@<TRIPOS>BOND
     1     6     2    1
     2     8     3    1
     3     9     3    1
     4     2     7    1
     5     2     3    1
     6     2     1    1
     7     3     4    1
     8     1     5    1
     9     4    10    1
    10     4    11    1
    11     4     5    1
    12     5    13    1
    13     5    12    1
