@<TRIPOS>MOLECULE
2
 44 43 0 0 0
SMALL
GASTEIGER

@<TRIPOS>ATOM
      1 SI         22.7340   10.7515   10.4110 Si      1  UNL1        0.0000
      2 O          22.8630   11.1592   11.9484 O.3     1  UNL1        0.0000
      3 O          21.1599   10.3521   10.2486 O.3     1  UNL1        0.0000
      4 O          23.5785    9.4042   10.0213 O.3     1  UNL1        0.0000
      5 O          23.2422   11.9537    9.4181 O.3     1  UNL1        0.0000
      6 C          20.4098    9.9515    9.1144 C.3     1  UNL1        0.0000
      7 C          21.0978   10.3419    7.8079 C.3     1  UNL1        0.0000
      8 H          20.4776   10.0669    6.9580 H       1  UNL1        0.0000
      9 H          22.0565    9.8379    7.7372 H       1  UNL1        0.0000
     10 H          21.2783   11.4117    7.7894 H       1  UNL1        0.0000
     11 C          19.0423   10.6350    9.2186 C.3     1  UNL1        0.0000
     12 H          18.3845   10.2877    8.4253 H       1  UNL1        0.0000
     13 H          19.1617   11.7118    9.1354 H       1  UNL1        0.0000
     14 H          18.5947   10.4130   10.1838 H       1  UNL1        0.0000
     15 C          20.2385    8.4292    9.1655 C.3     1  UNL1        0.0000
     16 H          19.7617    8.0676    8.2577 H       1  UNL1        0.0000
     17 H          19.6201    8.1630   10.0187 H       1  UNL1        0.0000
     18 H          21.2197    7.9717    9.2641 H       1  UNL1        0.0000
     19 C          24.9573    9.2760    9.7053 C.3     1  UNL1        0.0000
     20 C          25.3178    7.7971    9.8891 C.3     1  UNL1        0.0000
     21 H          26.3137    7.6044    9.4982 H       1  UNL1        0.0000
     22 H          24.6045    7.1722    9.3563 H       1  UNL1        0.0000
     23 H          25.2991    7.5442   10.9460 H       1  UNL1        0.0000
     24 C          25.8130   10.1361   10.6334 C.3     1  UNL1        0.0000
     25 H          26.8679    9.9094   10.4977 H       1  UNL1        0.0000
     26 H          25.5338    9.9488   11.6679 H       1  UNL1        0.0000
     27 H          25.6371   11.1847   10.4189 H       1  UNL1        0.0000
     28 C          25.1688    9.6957    8.2479 C.3     1  UNL1        0.0000
     29 H          26.2260    9.6771    7.9961 H       1  UNL1        0.0000
     30 H          24.7785   10.6999    8.1151 H       1  UNL1        0.0000
     31 H          24.6331    9.0227    7.5824 H       1  UNL1        0.0000
     32 C          23.1828   13.3618    9.6213 C.3     1  UNL1        0.0000
     33 C          24.2623   13.7794   10.6218 C.3     1  UNL1        0.0000
     34 H          24.2128   14.8490   10.8059 H       1  UNL1        0.0000
     35 H          25.2510   13.5295   10.2426 H       1  UNL1        0.0000
     36 H          24.0959   13.2509   11.5596 H       1  UNL1        0.0000
     37 C          23.4408   14.0013    8.2523 C.3     1  UNL1        0.0000
     38 H          23.4483   15.0840    8.3405 H       1  UNL1        0.0000
     39 H          22.6653   13.7080    7.5488 H       1  UNL1        0.0000
     40 H          24.4003   13.6702    7.8628 H       1  UNL1        0.0000
     41 C          21.8137   13.7718   10.1586 C.3     1  UNL1        0.0000
     42 H          21.7475   14.8530   10.2472 H       1  UNL1        0.0000
     43 H          21.6717   13.3238   11.1423 H       1  UNL1        0.0000
     44 H          21.0273   13.4165    9.4970 H       1  UNL1        0.0000
@<TRIPOS>BOND
     1     8     7    1
     2    39    37    1
     3    31    28    1
     4     9     7    1
     5    10     7    1
     6     7     6    1
     7    40    37    1
     8    29    28    1
     9    30    28    1
    10    28    19    1
    11    37    38    1
    12    37    32    1
    13    16    15    1
    14    12    11    1
    15     6    15    1
    16     6    11    1
    17     6     3    1
    18    13    11    1
    19    15    18    1
    20    15    17    1
    21    11    14    1
    22    22    20    1
    23     5    32    1
    24     5     1    1
    25    44    41    1
    26    21    20    1
    27    32    41    1
    28    32    33    1
    29    19    20    1
    30    19     4    1
    31    19    24    1
    32    20    23    1
    33     4     1    1
    34    41    42    1
    35    41    43    1
    36    35    33    1
    37     3     1    1
    38     1     2    1
    39    27    24    1
    40    25    24    1
    41    33    34    1
    42    33    36    1
    43    24    26    1
