@<TRIPOS>MOLECULE
1
 13 13 0 0 0
SMALL
GASTEIGER

@<TRIPOS>ATOM
      1 O          21.3026   10.9796   15.8223 O.3     1  UNL1       -0.3798
      2 C          21.2382   12.0435   16.7864 C.3     1  UNL1        0.0477
      3 H          20.1824   12.3003   16.9535 H       1  UNL1        0.0560
      4 H          21.7618   12.9092   16.3718 H       1  UNL1        0.0560
      5 C          21.8583   11.4860   18.0619 C.3     1  UNL1       -0.0274
      6 H          21.5297   12.0213   18.9491 H       1  UNL1        0.0288
      7 H          22.9461   11.5208   18.0012 H       1  UNL1        0.0288
      8 C          21.3683   10.0416   18.0125 C.3     1  UNL1       -0.0274
      9 H          21.9739    9.3600   18.6052 H       1  UNL1        0.0288
     10 H          20.3335    9.9831   18.3528 H       1  UNL1        0.0288
     11 C          21.4590    9.7364   16.5155 C.3     1  UNL1        0.0477
     12 H          22.4441    9.3195   16.2636 H       1  UNL1        0.0560
     13 H          20.6759    9.0472   16.1764 H       1  UNL1        0.0560
@<TRIPOS>BOND
     1     1    11    1
     2     1     2    1
     3    13    11    1
     4    12    11    1
     5     4     2    1
     6    11     8    1
     7     2     3    1
     8     2     5    1
     9     7     5    1
    10     8     5    1
    11     8    10    1
    12     8     9    1
    13     5     6    1
