@<TRIPOS>MOLECULE
1
 14 13 0 0 0
SMALL
GASTEIGER

@<TRIPOS>ATOM
      1 O          18.3486    8.5278   -1.1789 O.3     1  UNL1        0.0000
      2 SI         18.2218    8.4000   -2.7675 Si      1  UNL1        0.0000
      3 C          18.3129   10.1151   -3.6284 C.3     1  UNL1        0.0000
      4 C          16.5564    7.5949   -3.2862 C.3     1  UNL1        0.0000
      5 C          19.6259    7.3180   -3.5083 C.3     1  UNL1        0.0000
      6 H          19.2852   10.5779   -3.4908 H       1  UNL1        0.0000
      7 H          17.5655   10.7976   -3.2347 H       1  UNL1        0.0000
      8 H          18.1420   10.0244   -4.6964 H       1  UNL1        0.0000
      9 H          16.4193    6.6258   -2.8156 H       1  UNL1        0.0000
     10 H          16.5145    7.4448   -4.3604 H       1  UNL1        0.0000
     11 H          15.7108    8.2170   -3.0098 H       1  UNL1        0.0000
     12 H          19.5592    6.2907   -3.1637 H       1  UNL1        0.0000
     13 H          20.6064    7.6944   -3.2319 H       1  UNL1        0.0000
     14 H          19.5755    7.3032   -4.5924 H       1  UNL1        0.0000
@<TRIPOS>BOND
     1     8     3    1
     2    14     5    1
     3    10     4    1
     4     3     6    1
     5     3     7    1
     6     3     2    1
     7     5    13    1
     8     5    12    1
     9     5     2    1
    10     4    11    1
    11     4     9    1
    12     4     2    1
    13     2     1    1
