@<TRIPOS>MOLECULE
1
 13 13 0 0 0
SMALL
GASTEIGER

@<TRIPOS>ATOM
      1 O           8.2629    3.5740    4.8843 O.3     1  UNL1       -0.3798
      2 C           8.5125    4.8828    4.3308 C.3     1  UNL1        0.0477
      3 H           7.5687    5.2737    3.9428 H       1  UNL1        0.0560
      4 H           9.2409    4.7710    3.5148 H       1  UNL1        0.0560
      5 C           9.0861    5.7336    5.4594 C.3     1  UNL1       -0.0274
      6 H           8.2755    6.1928    6.0230 H       1  UNL1        0.0288
      7 H           9.7561    6.5074    5.0922 H       1  UNL1        0.0288
      8 C           9.7886    4.6853    6.3161 C.3     1  UNL1       -0.0274
      9 H          10.7521    4.4152    5.8802 H       1  UNL1        0.0288
     10 H           9.9422    5.0055    7.3431 H       1  UNL1        0.0288
     11 C           8.8072    3.5238    6.2130 C.3     1  UNL1        0.0477
     12 H           9.2791    2.5479    6.3470 H       1  UNL1        0.0560
     13 H           7.9918    3.6445    6.9364 H       1  UNL1        0.0560
@<TRIPOS>BOND
     1     4     2    1
     2     3     2    1
     3     2     1    1
     4     2     5    1
     5     1    11    1
     6     7     5    1
     7     5     6    1
     8     5     8    1
     9     9     8    1
    10    11     8    1
    11    11    12    1
    12    11    13    1
    13     8    10    1
