@<TRIPOS>MOLECULE
1
 13 13 0 0 0
SMALL
GASTEIGER

@<TRIPOS>ATOM
      1 O          11.0884    0.6494    8.6213 O.3     1  UNL1       -0.3798
      2 C          10.4020   -0.2137    7.7143 C.3     1  UNL1        0.0477
      3 H           9.8248   -0.9221    8.3117 H       1  UNL1        0.0560
      4 H          11.1347   -0.7509    7.0952 H       1  UNL1        0.0560
      5 C           9.5569    0.7174    6.8457 C.3     1  UNL1       -0.0274
      6 H           8.6106    0.9332    7.3392 H       1  UNL1        0.0288
      7 H           9.3497    0.2842    5.8700 H       1  UNL1        0.0288
      8 C          10.4260    1.9815    6.7579 C.3     1  UNL1       -0.0274
      9 H          10.8839    2.0857    5.7757 H       1  UNL1        0.0288
     10 H           9.8421    2.8789    6.9529 H       1  UNL1        0.0288
     11 C          11.5031    1.7658    7.8375 C.3     1  UNL1        0.0477
     12 H          12.4706    1.5411    7.3659 H       1  UNL1        0.0560
     13 H          11.6207    2.6193    8.5053 H       1  UNL1        0.0560
@<TRIPOS>BOND
     1     9     8    1
     2     7     5    1
     3     8     5    1
     4     8    10    1
     5     8    11    1
     6     5     6    1
     7     5     2    1
     8     4     2    1
     9    12    11    1
    10     2     3    1
    11     2     1    1
    12    11    13    1
    13    11     1    1
