@<TRIPOS>MOLECULE
1
 5 4 0 0 0
SMALL
GASTEIGER

@<TRIPOS>ATOM
      1 O           9.7833   -1.4711   10.5230 O.3     1  UNL1       -0.2383
      2 C           9.7988   -2.8550   10.6214 C.3     1  UNL1        0.0718
      3 H          10.0343   -3.2010   11.6419 H       1  UNL1        0.0555
      4 H          10.5320   -3.3032    9.9316 H       1  UNL1        0.0555
      5 H           8.8044   -3.2520   10.3594 H       1  UNL1        0.0555
@<TRIPOS>BOND
     1     4     2    1
     2     5     2    1
     3     1     2    1
     4     2     3    1
