@<TRIPOS>MOLECULE
1
 36 36 0 0 0
SMALL
GASTEIGER

@<TRIPOS>ATOM
      1 O          -1.7150    4.8291   14.4083 O.3     1  UNL1       -0.2873
      2 C          -2.4936    5.8934   14.5678 C.ar    1  UNL1        0.1863
      3 C          -3.2174    6.0693   15.7804 C.ar    1  UNL1        0.0049
      4 C          -3.9471    7.2328   15.9643 C.ar    1  UNL1       -0.0544
      5 H          -4.5026    7.3898   16.8735 H       1  UNL1        0.0622
      6 C          -3.9846    8.2208   15.0015 C.ar    1  UNL1       -0.0610
      7 H          -4.5361    9.1322   15.1790 H       1  UNL1        0.0618
      8 C          -3.3434    8.0185   13.7956 C.ar    1  UNL1       -0.0544
      9 H          -3.4276    8.7858   13.0453 H       1  UNL1        0.0622
     10 C          -2.6192    6.8665   13.5366 C.ar    1  UNL1        0.0049
     11 C          -2.0270    6.6346   12.1455 C.3     1  UNL1       -0.0090
     12 C          -0.4953    6.5597   12.2012 C.3     1  UNL1       -0.0559
     13 H          -0.0932    6.4302   11.1968 H       1  UNL1        0.0238
     14 H          -0.1666    5.7123   12.8152 H       1  UNL1        0.0238
     15 H          -0.0917    7.4824   12.6150 H       1  UNL1        0.0238
     16 C          -2.6002    5.3285   11.5792 C.3     1  UNL1       -0.0559
     17 H          -3.6838    5.4007   11.5076 H       1  UNL1        0.0238
     18 H          -2.3479    4.4854   12.2197 H       1  UNL1        0.0238
     19 H          -2.1990    5.1403   10.5850 H       1  UNL1        0.0238
     20 C          -2.3781    7.7508   11.1519 C.3     1  UNL1       -0.0559
     21 H          -1.9754    7.4915   10.1741 H       1  UNL1        0.0238
     22 H          -1.9391    8.6996   11.4508 H       1  UNL1        0.0238
     23 H          -3.4544    7.8647   11.0491 H       1  UNL1        0.0238
     24 C          -3.2264    4.9786   16.8522 C.3     1  UNL1       -0.0090
     25 C          -1.8178    4.7573   17.4209 C.3     1  UNL1       -0.0559
     26 H          -1.8372    3.9463   18.1485 H       1  UNL1        0.0238
     27 H          -1.4773    5.6635   17.9199 H       1  UNL1        0.0238
     28 H          -1.1007    4.4918   16.6288 H       1  UNL1        0.0238
     29 C          -3.7475    3.6748   16.2361 C.3     1  UNL1       -0.0559
     30 H          -3.0947    3.3561   15.4215 H       1  UNL1        0.0238
     31 H          -4.7501    3.8197   15.8382 H       1  UNL1        0.0238
     32 H          -3.7787    2.8895   16.9900 H       1  UNL1        0.0238
     33 C          -4.1372    5.3097   18.0426 C.3     1  UNL1       -0.0559
     34 H          -5.1662    5.4564   17.7240 H       1  UNL1        0.0238
     35 H          -3.7947    6.1955   18.5724 H       1  UNL1        0.0238
     36 H          -4.1186    4.4768   18.7434 H       1  UNL1        0.0238
@<TRIPOS>BOND
     1    21    20    1
     2    19    16    1
     3    23    20    1
     4    20    22    1
     5    20    11    1
     6    13    12    1
     7    17    16    1
     8    16    11    1
     9    16    18    1
    10    11    12    1
    11    11    10    1
    12    12    15    1
    13    12    14    1
    14     9     8    1
    15    10     8   ar
    16    10     2   ar
    17     8     6   ar
    18     1     2    1
    19     2     3   ar
    20     6     7    1
    21     6     4   ar
    22    30    29    1
    23     3     4   ar
    24     3    24    1
    25    31    29    1
    26     4     5    1
    27    29    24    1
    28    29    32    1
    29    28    25    1
    30    24    25    1
    31    24    33    1
    32    25    27    1
    33    25    26    1
    34    34    33    1
    35    33    35    1
    36    33    36    1
