@<TRIPOS>MOLECULE
1
 36 36 0 0 0
SMALL
GASTEIGER

@<TRIPOS>ATOM
      1 O           7.4524   -0.0708    4.5059 O.3     1  UNL1       -0.2873
      2 C           8.4413   -0.7304    3.9058 C.ar    1  UNL1        0.1863
      3 C           9.7513   -0.7214    4.4596 C.ar    1  UNL1        0.0049
      4 C          10.7561   -1.4482    3.8430 C.ar    1  UNL1       -0.0544
      5 H          11.7520   -1.4576    4.2526 H       1  UNL1        0.0622
      6 C          10.5196   -2.1840    2.7010 C.ar    1  UNL1       -0.0610
      7 H          11.3141   -2.7566    2.2459 H       1  UNL1        0.0618
      8 C           9.2598   -2.1702    2.1391 C.ar    1  UNL1       -0.0544
      9 H           9.1052   -2.7414    1.2396 H       1  UNL1        0.0622
     10 C           8.2172   -1.4495    2.6978 C.ar    1  UNL1        0.0049
     11 C          10.0520    0.0259    5.7573 C.3     1  UNL1       -0.0090
     12 C           9.6471    1.5032    5.6497 C.3     1  UNL1       -0.0559
     13 H          10.2440    1.9901    4.8800 H       1  UNL1        0.0238
     14 H           9.8255    2.0100    6.5984 H       1  UNL1        0.0238
     15 H           8.5918    1.6138    5.3831 H       1  UNL1        0.0238
     16 C           9.2913   -0.6769    6.8883 C.3     1  UNL1       -0.0559
     17 H           8.2082   -0.6288    6.7238 H       1  UNL1        0.0238
     18 H           9.5318   -0.2176    7.8445 H       1  UNL1        0.0238
     19 H           9.5818   -1.7254    6.9261 H       1  UNL1        0.0238
     20 C          11.5401    0.0115    6.1377 C.3     1  UNL1       -0.0559
     21 H          11.8885   -0.9969    6.3457 H       1  UNL1        0.0238
     22 H          11.6816    0.6035    7.0409 H       1  UNL1        0.0238
     23 H          12.1531    0.4469    5.3522 H       1  UNL1        0.0238
     24 C           6.8750   -1.3878    1.9695 C.3     1  UNL1       -0.0090
     25 C           6.8379   -2.2322    0.6875 C.3     1  UNL1       -0.0559
     26 H           5.8574   -2.1292    0.2248 H       1  UNL1        0.0238
     27 H           6.9962   -3.2861    0.9026 H       1  UNL1        0.0238
     28 H           7.5804   -1.8971   -0.0327 H       1  UNL1        0.0238
     29 C           5.7344   -1.8967    2.8608 C.3     1  UNL1       -0.0559
     30 H           5.6192   -1.2808    3.7624 H       1  UNL1        0.0238
     31 H           5.9385   -2.9203    3.1682 H       1  UNL1        0.0238
     32 H           4.7952   -1.8826    2.3075 H       1  UNL1        0.0238
     33 C           6.6395    0.0708    1.5574 C.3     1  UNL1       -0.0559
     34 H           6.6394    0.7122    2.4371 H       1  UNL1        0.0238
     35 H           5.6883    0.1704    1.0364 H       1  UNL1        0.0238
     36 H           7.4366    0.3977    0.8911 H       1  UNL1        0.0238
@<TRIPOS>BOND
     1    28    25    1
     2    26    25    1
     3    25    27    1
     4    25    24    1
     5    36    33    1
     6    35    33    1
     7     9     8    1
     8    33    24    1
     9    33    34    1
    10    24    10    1
    11    24    29    1
    12     8    10   ar
    13     8     6   ar
    14     7     6    1
    15    32    29    1
    16    10     2   ar
    17     6     4   ar
    18    29    31    1
    19    29    30    1
    20     4     5    1
    21     4     3   ar
    22     2     3   ar
    23     2     1    1
    24     3    11    1
    25    13    12    1
    26    23    20    1
    27    15    12    1
    28    12    11    1
    29    12    14    1
    30    11    20    1
    31    11    16    1
    32    20    21    1
    33    20    22    1
    34    17    16    1
    35    16    19    1
    36    16    18    1
