@<TRIPOS>MOLECULE
1
 30 30 0 0 0
SMALL
GASTEIGER

@<TRIPOS>ATOM
      1 O           7.7843    2.9680    4.4419 O.3     1  UNL1       -0.2873
      2 C           8.7196    2.3427    5.1199 C.ar    1  UNL1        0.1858
      3 C           9.1424    2.8437    6.3705 C.ar    1  UNL1        0.0021
      4 C          10.1501    2.1757    7.0465 C.ar    1  UNL1       -0.0547
      5 H          10.4907    2.5560    7.9975 H       1  UNL1        0.0622
      6 C          10.7241    1.0284    6.5298 C.ar    1  UNL1       -0.0610
      7 H          11.5074    0.5231    7.0744 H       1  UNL1        0.0618
      8 C          10.2857    0.5244    5.3197 C.ar    1  UNL1       -0.0547
      9 H          10.7257   -0.3805    4.9292 H       1  UNL1        0.0622
     10 C           9.2892    1.1625    4.6004 C.ar    1  UNL1        0.0021
     11 C           7.9651    3.8353    8.3540 C.3     1  UNL1       -0.0585
     12 H           7.4044    4.7027    8.6958 H       1  UNL1        0.0235
     13 H           7.2960    2.9770    8.3482 H       1  UNL1        0.0235
     14 H           8.7683    3.6453    9.0620 H       1  UNL1        0.0235
     15 C           9.5274    5.2410    6.9556 C.3     1  UNL1       -0.0585
     16 H           9.0618    6.1468    7.3380 H       1  UNL1        0.0235
     17 H          10.3819    4.9991    7.5843 H       1  UNL1        0.0235
     18 H           9.8878    5.4352    5.9463 H       1  UNL1        0.0235
     19 C           8.5152    4.0915    6.9485 C.3     1  UNL1       -0.0179
     20 H           7.6680    4.3865    6.3110 H       1  UNL1        0.0345
     21 C           8.7881    0.6011    3.2901 C.3     1  UNL1       -0.0179
     22 H           8.0468    1.2992    2.8799 H       1  UNL1        0.0345
     23 C           8.0889   -0.7408    3.5237 C.3     1  UNL1       -0.0585
     24 H           7.6804   -1.1191    2.5887 H       1  UNL1        0.0235
     25 H           8.7877   -1.4756    3.9165 H       1  UNL1        0.0235
     26 H           7.2754   -0.6257    4.2379 H       1  UNL1        0.0235
     27 C           9.9212    0.4566    2.2726 C.3     1  UNL1       -0.0585
     28 H           9.5235    0.1263    1.3150 H       1  UNL1        0.0235
     29 H          10.4284    1.4081    2.1270 H       1  UNL1        0.0235
     30 H          10.6533   -0.2742    2.6073 H       1  UNL1        0.0235
@<TRIPOS>BOND
     1    28    27    1
     2    29    27    1
     3    27    30    1
     4    27    21    1
     5    24    23    1
     6    22    21    1
     7    21    23    1
     8    21    10    1
     9    23    25    1
    10    23    26    1
    11     1     2    1
    12    10     2   ar
    13    10     8   ar
    14     9     8    1
    15     2     3   ar
    16     8     6   ar
    17    18    15    1
    18    20    19    1
    19     3    19    1
    20     3     4   ar
    21     6     4   ar
    22     6     7    1
    23    19    15    1
    24    19    11    1
    25    15    16    1
    26    15    17    1
    27     4     5    1
    28    13    11    1
    29    11    12    1
    30    11    14    1
