@<TRIPOS>MOLECULE
2
 14 13 0 0 0
SMALL
GASTEIGER

@<TRIPOS>ATOM
      1 SI          1.4873    2.9870    1.8102 Si      1  UNL1        0.0000
      2 O           2.8031    3.4365    0.9851 O.3     1  UNL1        0.0000
      3 C           1.2656    4.1168    3.3464 C.3     1  UNL1        0.0000
      4 C           1.7621    1.1573    2.3032 C.3     1  UNL1        0.0000
      5 C          -0.0707    3.1882    0.7067 C.3     1  UNL1        0.0000
      6 H           1.1431    5.1580    3.0604 H       1  UNL1        0.0000
      7 H           0.3804    3.8275    3.9034 H       1  UNL1        0.0000
      8 H           2.1160    4.0564    4.0187 H       1  UNL1        0.0000
      9 H           2.7242    0.8550    1.8818 H       1  UNL1        0.0000
     10 H           1.8050    1.0097    3.3771 H       1  UNL1        0.0000
     11 H           0.9977    0.4935    1.9126 H       1  UNL1        0.0000
     12 H           0.0174    2.6257   -0.2177 H       1  UNL1        0.0000
     13 H          -0.9526    2.8336    1.2300 H       1  UNL1        0.0000
     14 H          -0.2457    4.2287    0.4471 H       1  UNL1        0.0000
@<TRIPOS>BOND
     1    12     5    1
     2    14     5    1
     3     5    13    1
     4     5     1    1
     5     2     1    1
     6     1     4    1
     7     1     3    1
     8     9     4    1
     9    11     4    1
    10     4    10    1
    11     6     3    1
    12     3     7    1
    13     3     8    1
