@<TRIPOS>MOLECULE
2
 14 13 0 0 0
SMALL
GASTEIGER

@<TRIPOS>ATOM
      1 SI          2.6864    2.5712   -2.5422 Si      1  UNL1        0.0000
      2 O           3.7988    2.9904   -1.4526 O.3     1  UNL1        0.0000
      3 C           3.5454    2.2687   -4.2355 C.3     1  UNL1        0.0000
      4 C           1.4374    4.0120   -2.7418 C.3     1  UNL1        0.0000
      5 C           1.8579    0.9614   -1.9119 C.3     1  UNL1        0.0000
      6 H           4.1184    1.3455   -4.2426 H       1  UNL1        0.0000
      7 H           2.8047    2.1941   -5.0241 H       1  UNL1        0.0000
      8 H           4.2204    3.0797   -4.4973 H       1  UNL1        0.0000
      9 H           1.8606    4.8269   -3.3230 H       1  UNL1        0.0000
     10 H           0.5327    3.6890   -3.2464 H       1  UNL1        0.0000
     11 H           1.1557    4.4097   -1.7705 H       1  UNL1        0.0000
     12 H           0.7760    0.9770   -1.9969 H       1  UNL1        0.0000
     13 H           2.2105    0.0851   -2.4474 H       1  UNL1        0.0000
     14 H           2.1226    0.8373   -0.8609 H       1  UNL1        0.0000
@<TRIPOS>BOND
     1     7     3    1
     2     8     3    1
     3     6     3    1
     4     3     1    1
     5     9     4    1
     6    10     4    1
     7     4     1    1
     8     4    11    1
     9     1     5    1
    10     1     2    1
    11    13     5    1
    12    12     5    1
    13     5    14    1
