@<TRIPOS>MOLECULE
2
 14 13 0 0 0
SMALL
GASTEIGER

@<TRIPOS>ATOM
      1 SI          5.6228    4.1725    3.1870 Si      1  UNL1        0.0000
      2 O           5.3470    3.9710    1.6074 O.3     1  UNL1        0.0000
      3 C           4.9851    2.6059    4.0808 C.3     1  UNL1        0.0000
      4 C           4.7562    5.7868    3.7555 C.3     1  UNL1        0.0000
      5 C           7.5142    4.3637    3.4809 C.3     1  UNL1        0.0000
      6 H           4.8121    1.8458    3.3179 H       1  UNL1        0.0000
      7 H           5.6949    2.2140    4.8019 H       1  UNL1        0.0000
      8 H           4.0482    2.7727    4.6028 H       1  UNL1        0.0000
      9 H           3.7596    5.8595    3.3287 H       1  UNL1        0.0000
     10 H           4.6616    5.8239    4.8357 H       1  UNL1        0.0000
     11 H           5.3125    6.6680    3.4477 H       1  UNL1        0.0000
     12 H           7.9374    5.1978    2.9265 H       1  UNL1        0.0000
     13 H           7.7111    4.5458    4.5318 H       1  UNL1        0.0000
     14 H           8.0543    3.4637    3.1990 H       1  UNL1        0.0000
@<TRIPOS>BOND
     1     2     1    1
     2    12     5    1
     3     1     5    1
     4     1     4    1
     5     1     3    1
     6    14     5    1
     7     6     3    1
     8     9     4    1
     9    11     4    1
    10     5    13    1
    11     4    10    1
    12     3     8    1
    13     3     7    1
