@<TRIPOS>MOLECULE
1
 36 36 0 0 0
SMALL
GASTEIGER

@<TRIPOS>ATOM
      1 O           7.6500   11.9912   -0.0591 O.3     1  UNL1       -0.2873
      2 C           6.3305   12.0304   -0.0634 C.ar    1  UNL1        0.1863
      3 C           5.5934   11.8768    1.1486 C.ar    1  UNL1        0.0049
      4 C           4.2111   11.9322    1.1116 C.ar    1  UNL1       -0.0544
      5 C           3.5232   12.1277   -0.0689 C.ar    1  UNL1       -0.0610
      6 C           4.2276   12.2702   -1.2474 C.ar    1  UNL1       -0.0544
      7 C           5.6104   12.2271   -1.2794 C.ar    1  UNL1        0.0049
      8 C           6.3106   11.6448    2.4792 C.3     1  UNL1       -0.0090
      9 C           7.2243   12.8381    2.7930 C.3     1  UNL1       -0.0559
     10 C           5.3507   11.4939    3.6675 C.3     1  UNL1       -0.0559
     11 C           7.1289   10.3488    2.3967 C.3     1  UNL1       -0.0559
     12 C           6.3466   12.3963   -2.6091 C.3     1  UNL1       -0.0090
     13 C           5.4032   12.5840   -3.8054 C.3     1  UNL1       -0.0559
     14 C           7.1906   11.1474   -2.8990 C.3     1  UNL1       -0.0559
     15 C           7.2388   13.6433   -2.5421 C.3     1  UNL1       -0.0559
     16 H           3.6360   11.8220    2.0160 H       1  UNL1        0.0622
     17 H           2.4436   12.1671   -0.0708 H       1  UNL1        0.0618
     18 H           3.6649   12.4181   -2.1543 H       1  UNL1        0.0622
     19 H           7.9793   12.9632    2.0160 H       1  UNL1        0.0238
     20 H           6.6316   13.7498    2.8537 H       1  UNL1        0.0238
     21 H           7.7264   12.6887    3.7484 H       1  UNL1        0.0238
     22 H           5.9316   11.3260    4.5733 H       1  UNL1        0.0238
     23 H           4.7563   12.3926    3.8142 H       1  UNL1        0.0238
     24 H           4.6860   10.6434    3.5353 H       1  UNL1        0.0238
     25 H           7.8604   10.4140    1.5917 H       1  UNL1        0.0238
     26 H           7.6528   10.1703    3.3350 H       1  UNL1        0.0238
     27 H           6.4635    9.5078    2.2035 H       1  UNL1        0.0238
     28 H           4.7525   11.7226   -3.9360 H       1  UNL1        0.0238
     29 H           4.7942   13.4784   -3.6955 H       1  UNL1        0.0238
     30 H           5.9976   12.6943   -4.7113 H       1  UNL1        0.0238
     31 H           6.5452   10.2721   -2.9585 H       1  UNL1        0.0238
     32 H           7.7134   11.2571   -3.8486 H       1  UNL1        0.0238
     33 H           7.9262   10.9861   -2.1105 H       1  UNL1        0.0238
     34 H           7.9621   13.5500   -1.7321 H       1  UNL1        0.0238
     35 H           7.7758   13.7760   -3.4808 H       1  UNL1        0.0238
     36 H           6.6217   14.5240   -2.3669 H       1  UNL1        0.0238
@<TRIPOS>BOND
     1    30    13    1
     2    28    13    1
     3    32    14    1
     4    13    29    1
     5    13    12    1
     6    35    15    1
     7    31    14    1
     8    14    12    1
     9    14    33    1
    10    12    15    1
    11    12     7    1
    12    15    36    1
    13    15    34    1
    14    18     6    1
    15     7     6   ar
    16     7     2   ar
    17     6     5   ar
    18    17     5    1
    19     5     4   ar
    20     2     1    1
    21     2     3   ar
    22     4     3   ar
    23     4    16    1
    24     3     8    1
    25    25    11    1
    26    19     9    1
    27    27    11    1
    28    11     8    1
    29    11    26    1
    30     8     9    1
    31     8    10    1
    32     9    20    1
    33     9    21    1
    34    24    10    1
    35    10    23    1
    36    10    22    1
