@<TRIPOS>MOLECULE
1
 13 13 0 0 0
SMALL
GASTEIGER

@<TRIPOS>ATOM
      1 O           9.6280   14.6414    0.4537 O.3     1  UNL1       -0.3798
      2 C          10.6699   15.5780    0.2070 C.3     1  UNL1        0.0477
      3 C          10.0935   16.5398   -0.8341 C.3     1  UNL1       -0.0274
      4 C           8.5976   16.5696   -0.4808 C.3     1  UNL1       -0.0274
      5 C           8.4394   15.4270    0.5392 C.3     1  UNL1        0.0477
      6 H          11.5458   15.0301   -0.1400 H       1  UNL1        0.0560
      7 H          10.9078   16.1132    1.1379 H       1  UNL1        0.0560
      8 H          10.2437   16.1326   -1.8334 H       1  UNL1        0.0288
      9 H          10.5587   17.5212   -0.7831 H       1  UNL1        0.0288
     10 H           7.9842   16.3958   -1.3618 H       1  UNL1        0.0288
     11 H           8.3046   17.5211   -0.0413 H       1  UNL1        0.0288
     12 H           8.3507   15.8297    1.5577 H       1  UNL1        0.0560
     13 H           7.5886   14.7769    0.3353 H       1  UNL1        0.0560
@<TRIPOS>BOND
     1     8     3    1
     2    10     4    1
     3     3     9    1
     4     3     4    1
     5     3     2    1
     6     4    11    1
     7     4     5    1
     8     6     2    1
     9     2     1    1
    10     2     7    1
    11    13     5    1
    12     1     5    1
    13     5    12    1
