@<TRIPOS>MOLECULE
1
 13 13 0 0 0
SMALL
GASTEIGER

@<TRIPOS>ATOM
      1 O           9.5490    9.2726   -0.7087 O.3     1  UNL1       -0.3798
      2 C          10.6116    8.3314   -0.6205 C.3     1  UNL1        0.0477
      3 C          10.1678    7.3039    0.4305 C.3     1  UNL1       -0.0274
      4 C           8.6320    7.4043    0.4012 C.3     1  UNL1       -0.0274
      5 C           8.3641    8.4833   -0.6583 C.3     1  UNL1        0.0477
      6 H          11.5194    8.8704   -0.3484 H       1  UNL1        0.0560
      7 H          10.7482    7.8482   -1.5987 H       1  UNL1        0.0560
      8 H          10.5555    7.5760    1.4107 H       1  UNL1        0.0288
      9 H          10.5240    6.3063    0.1838 H       1  UNL1        0.0288
     10 H           8.2473    7.7185    1.3694 H       1  UNL1        0.0288
     11 H           8.1602    6.4622    0.1312 H       1  UNL1        0.0288
     12 H           8.1966    8.0233   -1.6426 H       1  UNL1        0.0560
     13 H           7.5267    9.1377   -0.4180 H       1  UNL1        0.0560
@<TRIPOS>BOND
     1    12     5    1
     2     7     2    1
     3     1     5    1
     4     1     2    1
     5     5    13    1
     6     5     4    1
     7     2     6    1
     8     2     3    1
     9    11     4    1
    10     9     3    1
    11     4     3    1
    12     4    10    1
    13     3     8    1
