@<TRIPOS>MOLECULE
4,8,9,10,35,36,40,41
 108 110 0 0 0
SMALL
GASTEIGER

@<TRIPOS>ATOM
      1 SI         -0.5567    7.8639   11.2514 Si      1  UNL1        0.0000
      2 N          -1.3222    9.4373   10.9792 N.3     1  UNL1        0.0000
      3 O          -0.2379   10.0807   13.0969 O.3     1  UNL1        0.0000
      4 C          -0.9709   11.9711   11.8293 C.3     1  UNL1        0.0000
      5 B          -0.8580   10.4709   11.8332 B       1  UNL1        0.0000
      6 SI         -2.8214    9.6422   10.0763 Si      1  UNL1        0.0000
      7 N           1.0233   14.8622   10.0609 N.pl3   1  UNL1        0.0000
      8 O          -0.3027   11.0378   15.1515 O.2     1  UNL1        0.0000
      9 C          -0.6318   10.9541   13.9860 C.2     1  UNL1        0.0000
     10 B          -0.4175   13.2755   11.4182 B       1  UNL1        0.0000
     11 C          -3.6586   11.3094   10.4624 C.3     1  UNL1        0.0000
     12 H          -4.0831   11.7685    9.5764 H       1  UNL1        0.0000
     13 H          -2.9348   11.9911   10.8998 H       1  UNL1        0.0000
     14 H          -4.4558   11.1824   11.1862 H       1  UNL1        0.0000
     15 C          -2.4514    9.5714    8.2021 C.3     1  UNL1        0.0000
     16 H          -3.3774    9.6296    7.6391 H       1  UNL1        0.0000
     17 H          -1.9558    8.6503    7.9208 H       1  UNL1        0.0000
     18 H          -1.8201   10.3941    7.8852 H       1  UNL1        0.0000
     19 C          -4.0670    8.2883   10.5832 C.3     1  UNL1        0.0000
     20 H          -5.0080    8.4204   10.0579 H       1  UNL1        0.0000
     21 H          -4.2732    8.3463   11.6473 H       1  UNL1        0.0000
     22 H          -3.7117    7.2868   10.3706 H       1  UNL1        0.0000
     23 C          -0.7941    6.7516    9.7181 C.3     1  UNL1        0.0000
     24 H          -0.3660    5.7751    9.9186 H       1  UNL1        0.0000
     25 H          -0.2853    7.1551    8.8494 H       1  UNL1        0.0000
     26 H          -1.8335    6.6032    9.4542 H       1  UNL1        0.0000
     27 C          -1.2737    7.0107   12.7960 C.3     1  UNL1        0.0000
     28 H          -0.7738    6.0679   12.9970 H       1  UNL1        0.0000
     29 H          -2.3343    6.8079   12.6865 H       1  UNL1        0.0000
     30 H          -1.1498    7.6457   13.6667 H       1  UNL1        0.0000
     31 C           1.3311    8.1067   11.3935 C.3     1  UNL1        0.0000
     32 H           1.8388    7.1487   11.4517 H       1  UNL1        0.0000
     33 H           1.5858    8.6720   12.2814 H       1  UNL1        0.0000
     34 H           1.7281    8.6389   10.5344 H       1  UNL1        0.0000
     35 C          -0.9081   14.1749   12.6733 C.3     1  UNL1        0.0000
     36 C          -0.1142   14.0756   13.8463 C.3     1  UNL1        0.0000
     37 C          -2.0341   14.4943   15.2338 C.2     1  UNL1        0.0000
     38 H          -2.4813   14.5972   16.2128 H       1  UNL1        0.0000
     39 C          -0.6666   14.2924   15.1257 C.2     1  UNL1        0.0000
     40 C          -2.8446   14.6194   14.0967 C.2     1  UNL1        0.0000
     41 C          -2.2708   14.5324   12.8231 C.2     1  UNL1        0.0000
     42 C          -4.3087   14.9059   14.2583 C.3     1  UNL1        0.0000
     43 H          -4.5531   15.8901   13.8579 H       1  UNL1        0.0000
     44 H          -4.5929   14.8794   15.3072 H       1  UNL1        0.0000
     45 H          -4.9028   14.1704   13.7198 H       1  UNL1        0.0000
     46 C           0.1744   14.1787   16.3575 C.3     1  UNL1        0.0000
     47 H           1.0526   14.8200   16.3026 H       1  UNL1        0.0000
     48 H           0.5095   13.1471   16.4632 H       1  UNL1        0.0000
     49 H          -0.3994   14.4464   17.2413 H       1  UNL1        0.0000
     50 C           1.3536   13.7696   13.7598 C.3     1  UNL1        0.0000
     51 H           1.9431   14.5861   14.1769 H       1  UNL1        0.0000
     52 H           1.6441   13.6097   12.7283 H       1  UNL1        0.0000
     53 H           1.5799   12.8695   14.3299 H       1  UNL1        0.0000
     54 C          -3.1223   14.7843   11.6157 C.3     1  UNL1        0.0000
     55 H          -3.5266   15.7965   11.6442 H       1  UNL1        0.0000
     56 H          -3.9577   14.0885   11.5751 H       1  UNL1        0.0000
     57 H          -2.5299   14.6775   10.7159 H       1  UNL1        0.0000
     58 C           0.6387   13.6012   10.4022 C.3     1  UNL1        0.0000
     59 C           2.3123   14.8999    9.3529 C.3     1  UNL1        0.0000
     60 C           2.4366   13.4649    8.8088 C.3     1  UNL1        0.0000
     61 H           3.4694   13.1228    8.8186 H       1  UNL1        0.0000
     62 H           2.0859   13.4261    7.7759 H       1  UNL1        0.0000
     63 C           1.5377   12.5918    9.7095 C.3     1  UNL1        0.0000
     64 C           0.7295   11.5885    8.8801 C.3     1  UNL1        0.0000
     65 H           1.4088   10.9195    8.3543 H       1  UNL1        0.0000
     66 H           0.1089   12.0917    8.1448 H       1  UNL1        0.0000
     67 H           0.0903   11.0002    9.5298 H       1  UNL1        0.0000
     68 C           2.3661   11.7886   10.7209 C.3     1  UNL1        0.0000
     69 H           2.9720   11.0502   10.1992 H       1  UNL1        0.0000
     70 H           1.7007   11.2716   11.4064 H       1  UNL1        0.0000
     71 H           3.0347   12.4262   11.2936 H       1  UNL1        0.0000
     72 C           3.4604   15.1839   10.3347 C.3     1  UNL1        0.0000
     73 H           4.4118   14.9709    9.8521 H       1  UNL1        0.0000
     74 H           3.3774   14.5594   11.2196 H       1  UNL1        0.0000
     75 H           3.4673   16.2237   10.6417 H       1  UNL1        0.0000
     76 C           2.3442   15.9543    8.2501 C.3     1  UNL1        0.0000
     77 H           3.3361   15.9798    7.8049 H       1  UNL1        0.0000
     78 H           2.1205   16.9392    8.6546 H       1  UNL1        0.0000
     79 H           1.6241   15.7356    7.4681 H       1  UNL1        0.0000
     80 C           0.0679   15.9188   10.0154 C.ar    1  UNL1        0.0000
     81 C           0.0813   16.9673   10.9444 C.ar    1  UNL1        0.0000
     82 C          -0.8951   17.9525   10.8661 C.ar    1  UNL1        0.0000
     83 H          -0.8834   18.7672   11.5730 H       1  UNL1        0.0000
     84 C          -1.8851   17.9079    9.9078 C.ar    1  UNL1        0.0000
     85 H          -2.6429   18.6765    9.8697 H       1  UNL1        0.0000
     86 C          -1.8927   16.8769    8.9909 C.ar    1  UNL1        0.0000
     87 H          -2.6640   16.8463    8.2373 H       1  UNL1        0.0000
     88 C          -0.9237   15.8838    9.0172 C.ar    1  UNL1        0.0000
     89 C           1.1340   17.0926   12.0191 C.3     1  UNL1        0.0000
     90 H           1.6954   16.1583   12.0562 H       1  UNL1        0.0000
     91 C           2.0830   18.2498   11.6843 C.3     1  UNL1        0.0000
     92 H           2.9096   18.2788   12.3915 H       1  UNL1        0.0000
     93 H           1.5542   19.1989   11.7394 H       1  UNL1        0.0000
     94 H           2.4879   18.1575   10.6787 H       1  UNL1        0.0000
     95 C           0.5207   17.3305   13.4014 C.3     1  UNL1        0.0000
     96 H           1.2871   17.2288   14.1670 H       1  UNL1        0.0000
     97 H          -0.2676   16.6122   13.6014 H       1  UNL1        0.0000
     98 H           0.1036   18.3310   13.4834 H       1  UNL1        0.0000
     99 C          -0.9659   14.8231    7.9392 C.3     1  UNL1        0.0000
    100 H          -0.0431   14.2456    7.9819 H       1  UNL1        0.0000
    101 C          -1.0609   15.4545    6.5444 C.3     1  UNL1        0.0000
    102 H          -0.8482   14.7052    5.7842 H       1  UNL1        0.0000
    103 H          -0.3518   16.2723    6.4319 H       1  UNL1        0.0000
    104 H          -2.0576   15.8443    6.3563 H       1  UNL1        0.0000
    105 C          -2.1302   13.8512    8.1499 C.3     1  UNL1        0.0000
    106 H          -2.1997   13.1688    7.3051 H       1  UNL1        0.0000
    107 H          -3.0720   14.3889    8.2297 H       1  UNL1        0.0000
    108 H          -1.9783   13.2640    9.0516 H       1  UNL1        0.0000
@<TRIPOS>BOND
     1   102   101    1
     2   104   101    1
     3   103   101    1
     4   101    99    1
     5   106   105    1
     6    79    76    1
     7    16    15    1
     8    62    60    1
     9    77    76    1
    10    18    15    1
    11    17    15    1
    12    99   100    1
    13    99   105    1
    14    99    88    1
    15    66    64    1
    16   105   107    1
    17   105   108    1
    18    15     6    1
    19    87    86    1
    20    76    78    1
    21    76    59    1
    22    65    64    1
    23    60    61    1
    24    60    59    1
    25    60    63    1
    26    25    23    1
    27    64    67    1
    28    64    63    1
    29    86    88   ar
    30    86    84   ar
    31    88    80   ar
    32    59     7    1
    33    59    72    1
    34    26    23    1
    35    12    11    1
    36    63    58    1
    37    63    68    1
    38    23    24    1
    39    23     1    1
    40    73    72    1
    41    85    84    1
    42    84    82   ar
    43    80     7    1
    44    80    81   ar
    45    20    19    1
    46     7    58    1
    47     6    11    1
    48     6    19    1
    49     6     2    1
    50    69    68    1
    51    72    75    1
    52    72    74    1
    53    22    19    1
    54    58    10    1
    55    11    13    1
    56    11    14    1
    57    34    31    1
    58    19    21    1
    59    94    91    1
    60    57    54    1
    61    68    71    1
    62    68    70    1
    63    82    81   ar
    64    82    83    1
    65    81    89    1
    66     2     1    1
    67     2     5    1
    68     1    31    1
    69     1    27    1
    70    31    32    1
    71    31    33    1
    72    10     4    1
    73    10    35    1
    74    56    54    1
    75    54    55    1
    76    54    41    1
    77    91    93    1
    78    91    89    1
    79    91    92    1
    80     4     5    1
    81     5     3    1
    82    89    90    1
    83    89    95    1
    84    35    41    1
    85    35    36    1
    86    29    27    1
    87    52    50    1
    88    27    28    1
    89    27    30    1
    90    41    40    2
    91     3     9    1
    92    95    98    1
    93    95    97    1
    94    95    96    1
    95    45    42    1
    96    50    36    1
    97    50    51    1
    98    50    53    1
    99    36    39    1
   100    43    42    1
   101     9     8    2
   102    40    42    1
   103    40    37    1
   104    42    44    1
   105    39    37    2
   106    39    46    1
   107    37    38    1
   108    47    46    1
   109    46    48    1
   110    46    49    1
