@<TRIPOS>MOLECULE
2,3,4,5,6,7,9,29,30,32
 59 62 0 0 0
SMALL
GASTEIGER

@<TRIPOS>ATOM
      1 SI          3.3957    5.6944    8.4895 Si      1  UNL1        0.0000
      2 N           1.4451    2.8340    6.1676 N.pl3   1  UNL1        0.0000
      3 N           5.3480    2.0504    8.9131 N.pl3   1  UNL1        0.0000
      4 B           2.3451    3.9745    6.1484 B       1  UNL1        0.0000
      5 B           4.7558    3.1488    9.6829 B       1  UNL1        0.0000
      6 C           2.1692    4.6414    7.4983 C.3     1  UNL1        0.0000
      7 C           1.1420    3.8775    8.1646 C.2     1  UNL1        0.0000
      8 H           0.7216    4.1029    9.1390 H       1  UNL1        0.0000
      9 C           0.7178    2.8426    7.3579 C.2     1  UNL1        0.0000
     10 H          -0.0894    2.1392    7.5264 H       1  UNL1        0.0000
     11 C           1.0281    1.9759    5.0743 C.3     1  UNL1        0.0000
     12 H           0.7432    0.9911    5.4659 H       1  UNL1        0.0000
     13 H           1.8684    1.8414    4.3866 H       1  UNL1        0.0000
     14 C          -0.1472    2.5976    4.3187 C.3     1  UNL1        0.0000
     15 H          -0.9937    2.7472    4.9854 H       1  UNL1        0.0000
     16 H          -0.4562    1.9512    3.5017 H       1  UNL1        0.0000
     17 H           0.1472    3.5624    3.9121 H       1  UNL1        0.0000
     18 C           3.3326    4.2793    4.9667 C.ar    1  UNL1        0.0000
     19 C           3.4068    5.5483    4.3876 C.ar    1  UNL1        0.0000
     20 H           2.7441    6.3220    4.7470 H       1  UNL1        0.0000
     21 C           4.2993    5.8286    3.3683 C.ar    1  UNL1        0.0000
     22 H           4.3350    6.8198    2.9396 H       1  UNL1        0.0000
     23 C           5.1454    4.8401    2.8950 C.ar    1  UNL1        0.0000
     24 H           5.8430    5.0549    2.0989 H       1  UNL1        0.0000
     25 C           5.0905    3.5719    3.4508 C.ar    1  UNL1        0.0000
     26 H           5.7488    2.7959    3.0871 H       1  UNL1        0.0000
     27 C           4.1992    3.2955    4.4728 C.ar    1  UNL1        0.0000
     28 H           4.1817    2.2965    4.9018 H       1  UNL1        0.0000
     29 C           4.6575    4.2926    8.6846 C.3     1  UNL1        0.0000
     30 C           5.3194    3.8240    7.4896 C.2     1  UNL1        0.0000
     31 H           5.5457    4.4314    6.6213 H       1  UNL1        0.0000
     32 C           5.7347    2.5180    7.6539 C.2     1  UNL1        0.0000
     33 H           6.3451    1.9101    6.9955 H       1  UNL1        0.0000
     34 C           5.7553    0.7227    9.3424 C.3     1  UNL1        0.0000
     35 H           5.9502    0.1033    8.4574 H       1  UNL1        0.0000
     36 H           4.9360    0.2559    9.9018 H       1  UNL1        0.0000
     37 C           7.0070    0.7895   10.2168 C.3     1  UNL1        0.0000
     38 H           7.8249    1.2518    9.6680 H       1  UNL1        0.0000
     39 H           7.3097   -0.2087   10.5214 H       1  UNL1        0.0000
     40 H           6.8065    1.3837   11.1049 H       1  UNL1        0.0000
     41 C           4.5207    3.1970   11.2340 C.ar    1  UNL1        0.0000
     42 C           4.7585    4.4161   11.8826 C.ar    1  UNL1        0.0000
     43 H           5.0764    5.2614   11.2906 H       1  UNL1        0.0000
     44 C           4.6146    4.5591   13.2492 C.ar    1  UNL1        0.0000
     45 H           4.8045    5.5164   13.7138 H       1  UNL1        0.0000
     46 C           4.2301    3.4777   14.0238 C.ar    1  UNL1        0.0000
     47 H           4.1141    3.5834   15.0928 H       1  UNL1        0.0000
     48 C           4.0011    2.2572   13.4125 C.ar    1  UNL1        0.0000
     49 H           3.7045    1.4042   14.0065 H       1  UNL1        0.0000
     50 C           4.1496    2.1194   12.0441 C.ar    1  UNL1        0.0000
     51 H           3.9465    1.1556   11.6031 H       1  UNL1        0.0000
     52 C           2.5905    6.2568   10.1256 C.3     1  UNL1        0.0000
     53 H           3.2297    6.9482   10.6616 H       1  UNL1        0.0000
     54 H           2.3926    5.4147   10.7815 H       1  UNL1        0.0000
     55 H           1.6519    6.7660    9.9335 H       1  UNL1        0.0000
     56 C           4.0949    7.1888    7.5304 C.3     1  UNL1        0.0000
     57 H           3.3201    7.9224    7.3380 H       1  UNL1        0.0000
     58 H           4.5153    6.8927    6.5758 H       1  UNL1        0.0000
     59 H           4.8759    7.6782    8.1019 H       1  UNL1        0.0000
@<TRIPOS>BOND
     1    24    23    1
     2    23    21   ar
     3    23    25   ar
     4    22    21    1
     5    26    25    1
     6    21    19   ar
     7    25    27   ar
     8    16    14    1
     9    17    14    1
    10    14    15    1
    11    14    11    1
    12    13    11    1
    13    19    20    1
    14    19    18   ar
    15    27    28    1
    16    27    18   ar
    17    18     4    1
    18    11    12    1
    19    11     2    1
    20     4     2    1
    21     4     6    1
    22     2     9    1
    23    58    56    1
    24    31    30    1
    25    33    32    1
    26    57    56    1
    27     9    10    1
    28     9     7    2
    29    30    32    2
    30    30    29    1
    31     6     7    1
    32     6     1    1
    33    56    59    1
    34    56     1    1
    35    32     3    1
    36     7     8    1
    37    35    34    1
    38     1    29    1
    39     1    52    1
    40    29     5    1
    41     3    34    1
    42     3     5    1
    43    34    36    1
    44    34    37    1
    45    38    37    1
    46     5    41    1
    47    55    52    1
    48    52    53    1
    49    52    54    1
    50    37    39    1
    51    37    40    1
    52    41    42   ar
    53    41    50   ar
    54    43    42    1
    55    51    50    1
    56    42    44   ar
    57    50    48   ar
    58    44    45    1
    59    44    46   ar
    60    48    49    1
    61    48    46   ar
    62    46    47    1
