@<TRIPOS>MOLECULE
1,2,5
 53 52 0 0 0
SMALL
GASTEIGER

@<TRIPOS>ATOM
      1 S           3.1281    4.7389   12.4198 S.3     1  UNL1        0.0000
      2 S           5.3143    2.2402   14.0426 S.3     1  UNL1        0.0000
      3 SI          3.1795    2.7607   10.1024 Si      1  UNL1        0.0000
      4 SI          4.9092    0.6355   11.4832 Si      1  UNL1        0.0000
      5 N           3.8158    1.9574   11.4775 N.3     1  UNL1        0.0000
      6 C           2.3401    4.3511   10.8317 C.3     1  UNL1        0.0000
      7 C           5.5766    0.6004   13.3082 C.3     1  UNL1        0.0000
      8 C           1.8723    1.7484    9.1445 C.3     1  UNL1        0.0000
      9 C           4.5013    3.4066    8.8866 C.3     1  UNL1        0.0000
     10 C           4.0918   -1.0385   11.0538 C.3     1  UNL1        0.0000
     11 C           6.4545    0.8698   10.3889 C.3     1  UNL1        0.0000
     12 C           2.0038    6.0440   13.1790 C.3     1  UNL1        0.0000
     13 C           2.6420    6.3365   14.5320 C.3     1  UNL1        0.0000
     14 C           0.5959    5.4956   13.3430 C.3     1  UNL1        0.0000
     15 C           2.0248    7.2786   12.2877 C.3     1  UNL1        0.0000
     16 C           5.6159    1.9828   15.8821 C.3     1  UNL1        0.0000
     17 C           7.0720    1.5844   16.0806 C.3     1  UNL1        0.0000
     18 C           4.6665    0.9322   16.4335 C.3     1  UNL1        0.0000
     19 C           5.3331    3.3519   16.4900 C.3     1  UNL1        0.0000
     20 H           1.2819    4.1731   11.0062 H       1  UNL1        0.0000
     21 H           2.4634    5.2111   10.1763 H       1  UNL1        0.0000
     22 H           6.6421    0.3821   13.3487 H       1  UNL1        0.0000
     23 H           5.0309   -0.1328   13.8969 H       1  UNL1        0.0000
     24 H           1.1383    1.3121    9.8168 H       1  UNL1        0.0000
     25 H           1.3402    2.3567    8.4205 H       1  UNL1        0.0000
     26 H           2.3503    0.9381    8.6043 H       1  UNL1        0.0000
     27 H           4.9549    2.5860    8.3453 H       1  UNL1        0.0000
     28 H           4.0630    4.0772    8.1555 H       1  UNL1        0.0000
     29 H           5.2924    3.9419    9.4002 H       1  UNL1        0.0000
     30 H           3.1151   -1.1349   11.5208 H       1  UNL1        0.0000
     31 H           3.9554   -1.1217    9.9808 H       1  UNL1        0.0000
     32 H           4.6965   -1.8806   11.3736 H       1  UNL1        0.0000
     33 H           7.1956    0.1048   10.5934 H       1  UNL1        0.0000
     34 H           6.1913    0.7959    9.3412 H       1  UNL1        0.0000
     35 H           6.9184    1.8369   10.5466 H       1  UNL1        0.0000
     36 H           2.6195    5.4467   15.1586 H       1  UNL1        0.0000
     37 H           3.6759    6.6502   14.4039 H       1  UNL1        0.0000
     38 H           2.0968    7.1305   15.0371 H       1  UNL1        0.0000
     39 H          -0.0023    6.2038   13.9141 H       1  UNL1        0.0000
     40 H           0.1075    5.3452   12.3821 H       1  UNL1        0.0000
     41 H           0.6068    4.5472   13.8825 H       1  UNL1        0.0000
     42 H           3.0460    7.6169   12.1307 H       1  UNL1        0.0000
     43 H           1.5721    7.0721   11.3212 H       1  UNL1        0.0000
     44 H           1.4619    8.0809   12.7605 H       1  UNL1        0.0000
     45 H           7.2755    0.6123   15.6385 H       1  UNL1        0.0000
     46 H           7.7328    2.3197   15.6282 H       1  UNL1        0.0000
     47 H           7.2937    1.5260   17.1443 H       1  UNL1        0.0000
     48 H           3.6319    1.1724   16.1843 H       1  UNL1        0.0000
     49 H           4.8968   -0.0600   16.0505 H       1  UNL1        0.0000
     50 H           4.7556    0.9002   17.5181 H       1  UNL1        0.0000
     51 H           5.5346    3.3340   17.5586 H       1  UNL1        0.0000
     52 H           5.9630    4.1097   16.0287 H       1  UNL1        0.0000
     53 H           4.2894    3.6220   16.3375 H       1  UNL1        0.0000
@<TRIPOS>BOND
     1    28     9    1
     2    27     9    1
     3    25     8    1
     4    26     8    1
     5     9    29    1
     6     9     3    1
     7     8    24    1
     8     8     3    1
     9    34    11    1
    10    31    10    1
    11     3     6    1
    12     3     5    1
    13    21     6    1
    14    11    35    1
    15    11    33    1
    16    11     4    1
    17     6    20    1
    18     6     1    1
    19    10    32    1
    20    10     4    1
    21    10    30    1
    22    43    15    1
    23     5     4    1
    24     4     7    1
    25    42    15    1
    26    15    44    1
    27    15    12    1
    28    40    14    1
    29     1    12    1
    30    12    14    1
    31    12    13    1
    32     7    22    1
    33     7    23    1
    34     7     2    1
    35    14    41    1
    36    14    39    1
    37     2    16    1
    38    37    13    1
    39    13    38    1
    40    13    36    1
    41    46    17    1
    42    45    17    1
    43    16    17    1
    44    16    18    1
    45    16    19    1
    46    52    19    1
    47    49    18    1
    48    17    47    1
    49    48    18    1
    50    53    19    1
    51    18    50    1
    52    19    51    1
