@<TRIPOS>MOLECULE
2,3,5
 49 52 0 0 0
SMALL
GASTEIGER

@<TRIPOS>ATOM
      1 SI          6.8053    3.0694    8.3202 Si      1  UNL1        0.0000
      2 S           9.1514    0.7384    8.3662 S.3     1  UNL1        0.0000
      3 S           6.6307    1.3933   10.7660 S.3     1  UNL1        0.0000
      4 S           4.5937    2.8795    5.9964 S.3     1  UNL1        0.0000
      5 N           6.3071    1.5186    7.6186 N.3     1  UNL1        0.0000
      6 C           8.4872    3.2737    9.1470 C.ar    1  UNL1        0.0000
      7 C           8.7633    4.4625    9.8101 C.ar    1  UNL1        0.0000
      8 H           7.9898    5.2180    9.8595 H       1  UNL1        0.0000
      9 C           9.9879    4.7016   10.4131 C.ar    1  UNL1        0.0000
     10 C          10.9654    3.7128   10.3382 C.ar    1  UNL1        0.0000
     11 H          11.9329    3.8837   10.7924 H       1  UNL1        0.0000
     12 C          10.7081    2.5158    9.7069 C.ar    1  UNL1        0.0000
     13 H          11.4597    1.7401    9.6633 H       1  UNL1        0.0000
     14 C           9.4631    2.2752    9.1220 C.ar    1  UNL1        0.0000
     15 C          10.2705    5.9955   11.1212 C.3     1  UNL1        0.0000
     16 H           9.3882    6.6314   11.1278 H       1  UNL1        0.0000
     17 H          11.0824    6.5327   10.6287 H       1  UNL1        0.0000
     18 H          10.5718    5.8087   12.1518 H       1  UNL1        0.0000
     19 C           5.3353    3.3738    9.4697 C.ar    1  UNL1        0.0000
     20 C           4.2998    4.2718    9.2853 C.ar    1  UNL1        0.0000
     21 H           4.3491    4.9767    8.4647 H       1  UNL1        0.0000
     22 C           3.2009    4.2843   10.1364 C.ar    1  UNL1        0.0000
     23 C           3.1564    3.3650   11.1786 C.ar    1  UNL1        0.0000
     24 H           2.3012    3.3567   11.8427 H       1  UNL1        0.0000
     25 C           4.1799    2.4597   11.3815 C.ar    1  UNL1        0.0000
     26 H           4.1365    1.7432   12.1886 H       1  UNL1        0.0000
     27 C           5.2731    2.4522   10.5228 C.ar    1  UNL1        0.0000
     28 C           2.0831    5.2611    9.9087 C.3     1  UNL1        0.0000
     29 H           1.3711    5.2367   10.7311 H       1  UNL1        0.0000
     30 H           1.5531    5.0194    8.9866 H       1  UNL1        0.0000
     31 H           2.4722    6.2745    9.8121 H       1  UNL1        0.0000
     32 C           6.7987    4.2823    6.8669 C.ar    1  UNL1        0.0000
     33 C           7.7429    5.2850    6.7000 C.ar    1  UNL1        0.0000
     34 H           8.5370    5.3682    7.4273 H       1  UNL1        0.0000
     35 C           7.6869    6.1794    5.6428 C.ar    1  UNL1        0.0000
     36 C           6.6595    6.0495    4.7126 C.ar    1  UNL1        0.0000
     37 H           6.5981    6.7391    3.8816 H       1  UNL1        0.0000
     38 C           5.7295    5.0380    4.8322 C.ar    1  UNL1        0.0000
     39 H           4.9417    4.9177    4.1033 H       1  UNL1        0.0000
     40 C           5.8070    4.1612    5.9078 C.ar    1  UNL1        0.0000
     41 C           8.6966    7.2813    5.5100 C.3     1  UNL1        0.0000
     42 H           9.5673    7.0799    6.1291 H       1  UNL1        0.0000
     43 H           8.2621    8.2301    5.8282 H       1  UNL1        0.0000
     44 H           9.0159    7.3899    4.4747 H       1  UNL1        0.0000
     45 C           4.8408    0.2269    6.1246 C.3     1  UNL1        0.0000
     46 H           4.7201   -0.5543    6.8724 H       1  UNL1        0.0000
     47 H           5.5341   -0.1456    5.3684 H       1  UNL1        0.0000
     48 H           3.8831    0.4454    5.6549 H       1  UNL1        0.0000
     49 C           5.4096    1.4616    6.7303 C.3     1  UNL1        0.0000
@<TRIPOS>BOND
     1    37    36    1
     2    39    38    1
     3    44    41    1
     4    36    38   ar
     5    36    35   ar
     6    38    40   ar
     7    47    45    1
     8    41    35    1
     9    41    43    1
    10    41    42    1
    11    35    33   ar
    12    48    45    1
    13    40     4    1
    14    40    32   ar
    15     4    49    1
    16    45    49    1
    17    45    46    1
    18    33    32   ar
    19    33    34    1
    20    49     5    1
    21    32     1    1
    22     5     1    1
    23     1     6    1
    24     1    19    1
    25     2    14    1
    26    21    20    1
    27    30    28    1
    28    14     6   ar
    29    14    12   ar
    30     6     7   ar
    31    20    19   ar
    32    20    22   ar
    33    19    27   ar
    34    13    12    1
    35    12    10   ar
    36     7     8    1
    37     7     9   ar
    38    31    28    1
    39    28    22    1
    40    28    29    1
    41    22    23   ar
    42    10     9   ar
    43    10    11    1
    44     9    15    1
    45    27     3    1
    46    27    25   ar
    47    17    15    1
    48    15    16    1
    49    15    18    1
    50    23    25   ar
    51    23    24    1
    52    25    26    1
