@<TRIPOS>MOLECULE
2,3,5
 49 52 0 0 0
SMALL
GASTEIGER

@<TRIPOS>ATOM
      1 SI          7.2038   -3.0691    9.4444 Si      1  UNL1        0.0000
      2 S           4.8586   -0.7372    9.3946 S.3     1  UNL1        0.0000
      3 S           7.3774   -1.3945    6.9969 S.3     1  UNL1        0.0000
      4 S           9.4159   -2.8795   11.7677 S.3     1  UNL1        0.0000
      5 N           7.7013   -1.5184   10.1469 N.3     1  UNL1        0.0000
      6 C           5.5220   -3.2738    8.6175 C.ar    1  UNL1        0.0000
      7 C           5.2460   -4.4626    7.9543 C.ar    1  UNL1        0.0000
      8 H           6.0196   -5.2181    7.9051 H       1  UNL1        0.0000
      9 C           4.0214   -4.7020    7.3515 C.ar    1  UNL1        0.0000
     10 C           3.0437   -3.7133    7.4265 C.ar    1  UNL1        0.0000
     11 H           2.0762   -3.8845    6.9724 H       1  UNL1        0.0000
     12 C           3.3009   -2.5162    8.0576 C.ar    1  UNL1        0.0000
     13 H           2.5493   -1.7406    8.1011 H       1  UNL1        0.0000
     14 C           4.5458   -2.2756    8.6428 C.ar    1  UNL1        0.0000
     15 C           3.7389   -5.9959    6.6435 C.3     1  UNL1        0.0000
     16 H           4.6212   -6.6318    6.6369 H       1  UNL1        0.0000
     17 H           2.9270   -6.5332    7.1359 H       1  UNL1        0.0000
     18 H           3.4376   -5.8092    5.6129 H       1  UNL1        0.0000
     19 C           8.6738   -3.3735    8.2949 C.ar    1  UNL1        0.0000
     20 C           9.7095   -4.2714    8.4794 C.ar    1  UNL1        0.0000
     21 H           9.6601   -4.9765    9.2998 H       1  UNL1        0.0000
     22 C          10.8084   -4.2838    7.6283 C.ar    1  UNL1        0.0000
     23 C          10.8528   -3.3645    6.5861 C.ar    1  UNL1        0.0000
     24 H          11.7078   -3.3564    5.9218 H       1  UNL1        0.0000
     25 C           9.8291   -2.4595    6.3830 C.ar    1  UNL1        0.0000
     26 H           9.8723   -1.7432    5.5758 H       1  UNL1        0.0000
     27 C           8.7355   -2.4524    7.2413 C.ar    1  UNL1        0.0000
     28 C          11.9262   -5.2607    7.8558 C.3     1  UNL1        0.0000
     29 H          12.6381   -5.2363    7.0333 H       1  UNL1        0.0000
     30 H          12.4562   -5.0191    8.7779 H       1  UNL1        0.0000
     31 H          11.5371   -6.2741    7.9523 H       1  UNL1        0.0000
     32 C           7.2106   -4.2822   10.8976 C.ar    1  UNL1        0.0000
     33 C           6.2665   -5.2850   11.0646 C.ar    1  UNL1        0.0000
     34 H           5.4723   -5.3681   10.3373 H       1  UNL1        0.0000
     35 C           6.3225   -6.1794   12.1217 C.ar    1  UNL1        0.0000
     36 C           7.3500   -6.0494   13.0519 C.ar    1  UNL1        0.0000
     37 H           7.4113   -6.7389   13.8830 H       1  UNL1        0.0000
     38 C           8.2800   -5.0379   12.9322 C.ar    1  UNL1        0.0000
     39 H           9.0677   -4.9175   13.6611 H       1  UNL1        0.0000
     40 C           8.2024   -4.1611   11.8566 C.ar    1  UNL1        0.0000
     41 C           5.3129   -7.2813   12.2546 C.3     1  UNL1        0.0000
     42 H           4.4421   -7.0799   11.6356 H       1  UNL1        0.0000
     43 H           5.7474   -8.2300   11.9365 H       1  UNL1        0.0000
     44 H           4.9936   -7.3898   13.2900 H       1  UNL1        0.0000
     45 C           9.1678   -0.2271   11.6407 C.3     1  UNL1        0.0000
     46 H           9.2857    0.5553   10.8938 H       1  UNL1        0.0000
     47 H           8.4756    0.1438   12.3988 H       1  UNL1        0.0000
     48 H          10.1269   -0.4445   12.1080 H       1  UNL1        0.0000
     49 C           8.5992   -1.4615   11.0349 C.3     1  UNL1        0.0000
@<TRIPOS>BOND
     1    26    25    1
     2    18    15    1
     3    24    23    1
     4    25    23   ar
     5    25    27   ar
     6    23    22   ar
     7    16    15    1
     8    15    17    1
     9    15     9    1
    10    11    10    1
    11     3    27    1
    12    29    28    1
    13    27    19   ar
    14     9    10   ar
    15     9     7   ar
    16    10    12   ar
    17    22    28    1
    18    22    20   ar
    19    28    31    1
    20    28    30    1
    21     8     7    1
    22     7     6   ar
    23    12    13    1
    24    12    14   ar
    25    19    20   ar
    26    19     1    1
    27    20    21    1
    28     6    14   ar
    29     6     1    1
    30    14     2    1
    31     1     5    1
    32     1    32    1
    33     5    49    1
    34    34    33    1
    35    46    45    1
    36    32    33   ar
    37    32    40   ar
    38    49    45    1
    39    49     4    1
    40    33    35   ar
    41    42    41    1
    42    45    48    1
    43    45    47    1
    44     4    40    1
    45    40    38   ar
    46    43    41    1
    47    35    41    1
    48    35    36   ar
    49    41    44    1
    50    38    36   ar
    51    38    39    1
    52    36    37    1
