@<TRIPOS>MOLECULE
1,4,7
 19 18 0 0 0
SMALL
GASTEIGER

@<TRIPOS>ATOM
      1 S          -3.0303    1.2525   16.2264 S.3     1  UNL1       -0.0918
      2 C          -2.3533   -0.1688   17.1575 C.3     1  UNL1        0.0167
      3 C          -1.9856   -1.3051   16.2120 C.3     1  UNL1        0.0084
      4 N          -1.0469   -0.8567   15.1777 N.3     1  UNL1       -0.3037
      5 C          -1.0110   -1.7594   14.0186 C.3     1  UNL1        0.0084
      6 C          -2.2843   -1.7390   13.1891 C.3     1  UNL1        0.0167
      7 S          -2.8246   -0.0329   12.7630 S.3     1  UNL1       -0.0918
      8 C           0.3043   -0.7494   15.7329 C.3     1  UNL1       -0.0127
      9 H          -1.4994    0.1890   17.7325 H       1  UNL1        0.0397
     10 H          -3.1344   -0.4857   17.8490 H       1  UNL1        0.0397
     11 H          -1.5550   -2.1412   16.7832 H       1  UNL1        0.0435
     12 H          -2.9030   -1.6540   15.7299 H       1  UNL1        0.0435
     13 H          -0.1872   -1.4204   13.3840 H       1  UNL1        0.0435
     14 H          -0.8032   -2.7892   14.3482 H       1  UNL1        0.0435
     15 H          -3.1237   -2.2179   13.6966 H       1  UNL1        0.0397
     16 H          -2.1137   -2.2586   12.2465 H       1  UNL1        0.0397
     17 H           0.3017   -0.0991   16.6040 H       1  UNL1        0.0391
     18 H           0.9636   -0.3051   14.9885 H       1  UNL1        0.0391
     19 H           0.6855   -1.7356   16.0218 H       1  UNL1        0.0391
@<TRIPOS>BOND
     1    16     6    1
     2     7     6    1
     3     6    15    1
     4     6     5    1
     5    13     5    1
     6     5    14    1
     7     5     4    1
     8    18     8    1
     9     4     8    1
    10     4     3    1
    11    12     3    1
    12     8    19    1
    13     8    17    1
    14     3    11    1
    15     3     2    1
    16     1     2    1
    17     2     9    1
    18     2    10    1
