@<TRIPOS>MOLECULE
1,2,3,13
 31 32 0 0 0
SMALL
GASTEIGER

@<TRIPOS>ATOM
      1 SI          7.1977    6.8660    9.0304 Si      1  UNL1        0.0000
      2 S           6.4292    4.5155    7.1347 S.3     1  UNL1        0.0000
      3 S           8.5864    5.1029   11.1983 S.3     1  UNL1        0.0000
      4 C           7.8134    5.4330    6.6659 C.3     1  UNL1        0.0000
      5 C           8.3471    5.4182    5.3768 C.2     1  UNL1        0.0000
      6 H           7.8384    4.8678    4.5987 H       1  UNL1        0.0000
      7 C           9.4887    6.1394    5.1048 C.2     1  UNL1        0.0000
      8 H           9.8898    6.1547    4.1003 H       1  UNL1        0.0000
      9 C          10.1264    6.8521    6.1144 C.2     1  UNL1        0.0000
     10 H          11.0226    7.4139    5.8905 H       1  UNL1        0.0000
     11 C           9.5855    6.8833    7.3863 C.2     1  UNL1        0.0000
     12 H          10.0596    7.4798    8.1523 H       1  UNL1        0.0000
     13 C           8.4053    6.2102    7.6823 C.3     1  UNL1        0.0000
     14 C           6.9777    5.6107   11.5617 C.ar    1  UNL1        0.0000
     15 C           6.4361    5.5900   12.8477 C.ar    1  UNL1        0.0000
     16 H           7.0639    5.3152   13.6828 H       1  UNL1        0.0000
     17 C           5.1240    5.9618   13.0398 C.ar    1  UNL1        0.0000
     18 H           4.7088    5.9763   14.0385 H       1  UNL1        0.0000
     19 C           4.3304    6.3231   11.9563 C.ar    1  UNL1        0.0000
     20 H           3.3011    6.6117   12.1182 H       1  UNL1        0.0000
     21 C           4.8726    6.3624   10.6855 C.ar    1  UNL1        0.0000
     22 H           4.2633    6.6917    9.8563 H       1  UNL1        0.0000
     23 C           6.2086    6.0462   10.4635 C.ar    1  UNL1        0.0000
     24 C           5.9052    7.8018    7.9565 C.3     1  UNL1        0.0000
     25 H           5.2116    7.1344    7.4579 H       1  UNL1        0.0000
     26 H           5.3350    8.5072    8.5509 H       1  UNL1        0.0000
     27 H           6.4233    8.3629    7.1863 H       1  UNL1        0.0000
     28 C           8.1382    8.2631    9.9591 C.3     1  UNL1        0.0000
     29 H           8.9916    7.8961   10.5175 H       1  UNL1        0.0000
     30 H           8.4808    9.0306    9.2739 H       1  UNL1        0.0000
     31 H           7.4653    8.7318   10.6690 H       1  UNL1        0.0000
@<TRIPOS>BOND
     1     8     7    1
     2     6     5    1
     3     7     5    2
     4     7     9    1
     5     5     4    1
     6    10     9    1
     7     9    11    2
     8     4     2    1
     9     4    13    1
    10    27    24    1
    11    11    13    1
    12    11    12    1
    13    25    24    1
    14    13     1    1
    15    24    26    1
    16    24     1    1
    17     1    28    1
    18     1    23    1
    19    30    28    1
    20    22    21    1
    21    28    29    1
    22    28    31    1
    23    23    21   ar
    24    23    14   ar
    25    21    19   ar
    26     3    14    1
    27    14    15   ar
    28    19    20    1
    29    19    17   ar
    30    15    17   ar
    31    15    16    1
    32    17    18    1
