@<TRIPOS>MOLECULE
1,2,3,7,15,20
 130 129 0 0 0
SMALL
GASTEIGER

@<TRIPOS>ATOM
      1 SI          3.0031    1.3128   12.9217 Si      1  UNL1        0.0000
      2 SI          2.6567    0.7297   16.3081 Si      1  UNL1        0.0000
      3 SI          0.6530    1.0873   14.4052 Si      1  UNL1        0.0000
      4 SI          1.6332    1.3710   18.3487 Si      1  UNL1        0.0000
      5 SI          3.5217    1.4860   10.6269 Si      1  UNL1        0.0000
      6 SI          6.6760    1.2966   15.3672 Si      1  UNL1        0.0000
      7 SI          4.3720    1.5490   14.8097 Si      1  UNL1        0.0000
      8 SI         -1.3734    1.7106   13.4121 Si      1  UNL1        0.0000
      9 C          -1.8116    3.5372   13.8950 C.3     1  UNL1        0.0000
     10 C           3.4573    3.3905   10.2728 C.3     1  UNL1        0.0000
     11 C          -0.2697    1.1900   18.2035 C.3     1  UNL1        0.0000
     12 H          -0.5491    0.1453   18.1155 H       1  UNL1        0.0000
     13 H          -0.6341    1.6942   17.3161 H       1  UNL1        0.0000
     14 H          -0.7979    1.5993   19.0595 H       1  UNL1        0.0000
     15 O           1.3362   -1.8209   11.6605 O.3     1  UNL1        0.0000
     16 C           7.5400    0.1820   14.0639 C.3     1  UNL1        0.0000
     17 H           7.3030    0.5033   13.0565 H       1  UNL1        0.0000
     18 H           7.2029   -0.8455   14.1585 H       1  UNL1        0.0000
     19 H           8.6221    0.1824   14.1587 H       1  UNL1        0.0000
     20 C           1.6526   -1.3410   12.6661 C.3     1  UNL1        0.0000
     21 C           1.5510    3.7376   19.9930 C.3     1  UNL1        0.0000
     22 H           0.4925    3.5363   20.1387 H       1  UNL1        0.0000
     23 H           1.7026    4.8133   20.0850 H       1  UNL1        0.0000
     24 H           2.1089    3.2558   20.7922 H       1  UNL1        0.0000
     25 C           6.5378    4.1127   15.9415 C.3     1  UNL1        0.0000
     26 H           5.5145    4.1179   15.5703 H       1  UNL1        0.0000
     27 H           6.9467    5.1147   15.8133 H       1  UNL1        0.0000
     28 H           6.5164    3.8945   17.0044 H       1  UNL1        0.0000
     29 C           7.3886    3.0988   15.1791 C.3     1  UNL1        0.0000
     30 C           2.0210    3.2522   18.6237 C.3     1  UNL1        0.0000
     31 C           5.1465    0.5660   10.0825 C.3     1  UNL1        0.0000
     32 C           2.0176    3.8620   10.4622 C.3     1  UNL1        0.0000
     33 H           1.3581    3.3905    9.7388 H       1  UNL1        0.0000
     34 H           1.9500    4.9410   10.3235 H       1  UNL1        0.0000
     35 H           1.6676    3.6244   11.4651 H       1  UNL1        0.0000
     36 C           7.0451    0.4190   17.0757 C.3     1  UNL1        0.0000
     37 C           3.8841    3.7159    8.8443 C.3     1  UNL1        0.0000
     38 H           4.9286    3.4648    8.6779 H       1  UNL1        0.0000
     39 H           3.7643    4.7817    8.6456 H       1  UNL1        0.0000
     40 H           3.2781    3.1730    8.1221 H       1  UNL1        0.0000
     41 C           3.5127    3.5401   18.4848 C.3     1  UNL1        0.0000
     42 H           3.8726    3.2253   17.5075 H       1  UNL1        0.0000
     43 H           4.0842    3.0279   19.2528 H       1  UNL1        0.0000
     44 H           3.7007    4.6084   18.5883 H       1  UNL1        0.0000
     45 C          -1.2718    1.6718   11.4977 C.3     1  UNL1        0.0000
     46 H          -0.6834    2.5037   11.1258 H       1  UNL1        0.0000
     47 H          -2.2483    1.7191   11.0240 H       1  UNL1        0.0000
     48 H          -0.7938    0.7555   11.1667 H       1  UNL1        0.0000
     49 C           1.2889    4.0502   17.5464 C.3     1  UNL1        0.0000
     50 H           1.5730    3.7079   16.5538 H       1  UNL1        0.0000
     51 H           1.5363    5.1076   17.6293 H       1  UNL1        0.0000
     52 H           0.2135    3.9515   17.6555 H       1  UNL1        0.0000
     53 C           1.1974    0.2105   20.9557 C.3     1  UNL1        0.0000
     54 H           0.1888   -0.0657   20.6609 H       1  UNL1        0.0000
     55 H           1.1710    1.2088   21.3845 H       1  UNL1        0.0000
     56 H           1.5184   -0.4808   21.7351 H       1  UNL1        0.0000
     57 C           2.1552    0.1372   19.7639 C.3     1  UNL1        0.0000
     58 C           6.7608    1.3507   18.2501 C.3     1  UNL1        0.0000
     59 H           5.7541    1.7550   18.1850 H       1  UNL1        0.0000
     60 H           7.4655    2.1779   18.2719 H       1  UNL1        0.0000
     61 H           6.8559    0.8125   19.1934 H       1  UNL1        0.0000
     62 C           4.3372    4.1713   11.2448 C.3     1  UNL1        0.0000
     63 H           5.3837    3.9087   11.1252 H       1  UNL1        0.0000
     64 H           4.0428    3.9740   12.2748 H       1  UNL1        0.0000
     65 H           4.2410    5.2418   11.0635 H       1  UNL1        0.0000
     66 C           8.8340    3.2045   15.6588 C.3     1  UNL1        0.0000
     67 H           9.4675    2.4799   15.1524 H       1  UNL1        0.0000
     68 H           8.9055    3.0414   16.7308 H       1  UNL1        0.0000
     69 H           9.2301    4.1984   15.4482 H       1  UNL1        0.0000
     70 C           2.1093    0.6826    9.6157 C.3     1  UNL1        0.0000
     71 H           1.1434    1.0122    9.9819 H       1  UNL1        0.0000
     72 H           2.1326   -0.3990    9.7003 H       1  UNL1        0.0000
     73 H           2.1609    0.9298    8.5591 H       1  UNL1        0.0000
     74 C           3.5754    0.3949   20.2601 C.3     1  UNL1        0.0000
     75 H           3.6521    1.3658   20.7430 H       1  UNL1        0.0000
     76 H           4.2837    0.3578   19.4375 H       1  UNL1        0.0000
     77 H           3.8634   -0.3621   20.9896 H       1  UNL1        0.0000
     78 C           7.3484    3.4709   13.6992 C.3     1  UNL1        0.0000
     79 H           6.3366    3.3859   13.3087 H       1  UNL1        0.0000
     80 H           8.0043    2.8286   13.1185 H       1  UNL1        0.0000
     81 H           7.6780    4.4998   13.5575 H       1  UNL1        0.0000
     82 C          -2.6443    0.3284   13.9274 C.3     1  UNL1        0.0000
     83 C           6.1307   -0.7987   17.1918 C.3     1  UNL1        0.0000
     84 H           5.0816   -0.5031   17.1911 H       1  UNL1        0.0000
     85 H           6.3301   -1.3367   18.1184 H       1  UNL1        0.0000
     86 H           6.2888   -1.4884   16.3673 H       1  UNL1        0.0000
     87 C          -2.9104    4.1029   12.9972 C.3     1  UNL1        0.0000
     88 H          -2.5999    4.0988   11.9558 H       1  UNL1        0.0000
     89 H          -3.1294    5.1341   13.2763 H       1  UNL1        0.0000
     90 H          -3.8308    3.5320   13.0844 H       1  UNL1        0.0000
     91 C           8.4915   -0.0720   17.1719 C.3     1  UNL1        0.0000
     92 H           9.2009    0.7433   17.0601 H       1  UNL1        0.0000
     93 H           8.6997   -0.8196   16.4114 H       1  UNL1        0.0000
     94 H           8.6605   -0.5322   18.1458 H       1  UNL1        0.0000
     95 C           6.3934    1.3758   10.4256 C.3     1  UNL1        0.0000
     96 H           6.4657    2.2650    9.8043 H       1  UNL1        0.0000
     97 H           7.2922    0.7812   10.2579 H       1  UNL1        0.0000
     98 H           6.3768    1.6884   11.4676 H       1  UNL1        0.0000
     99 C          -2.2857   -0.9504   13.1705 C.3     1  UNL1        0.0000
    100 H          -1.2585   -1.2552   13.3757 H       1  UNL1        0.0000
    101 H          -2.3943   -0.8186   12.0976 H       1  UNL1        0.0000
    102 H          -2.9400   -1.7668   13.4762 H       1  UNL1        0.0000
    103 C           2.0982   -1.2818   19.1978 C.3     1  UNL1        0.0000
    104 H           1.1116   -1.5098   18.8028 H       1  UNL1        0.0000
    105 H           2.3220   -2.0094   19.9772 H       1  UNL1        0.0000
    106 H           2.8235   -1.4174   18.3971 H       1  UNL1        0.0000
    107 C           5.2004   -0.7541   10.8509 C.3     1  UNL1        0.0000
    108 H           4.3092   -1.3510   10.6677 H       1  UNL1        0.0000
    109 H           5.2779   -0.5807   11.9234 H       1  UNL1        0.0000
    110 H           6.0643   -1.3432   10.5435 H       1  UNL1        0.0000
    111 C          -0.5594    4.3930   13.7135 C.3     1  UNL1        0.0000
    112 H          -0.2260    4.3735   12.6798 H       1  UNL1        0.0000
    113 H           0.2529    4.0366   14.3431 H       1  UNL1        0.0000
    114 H          -0.7695    5.4286   13.9779 H       1  UNL1        0.0000
    115 C           5.1599    0.2495    8.5858 C.3     1  UNL1        0.0000
    116 H           4.3398   -0.4132    8.3217 H       1  UNL1        0.0000
    117 H           6.0920   -0.2497    8.3182 H       1  UNL1        0.0000
    118 H           5.0803    1.1539    7.9872 H       1  UNL1        0.0000
    119 C          -2.5569    0.0244   15.4214 C.3     1  UNL1        0.0000
    120 H          -1.5678   -0.3467   15.6858 H       1  UNL1        0.0000
    121 H          -3.2808   -0.7450   15.6907 H       1  UNL1        0.0000
    122 H          -2.7642    0.9048   16.0231 H       1  UNL1        0.0000
    123 C          -4.0853    0.7066   13.5860 C.3     1  UNL1        0.0000
    124 H          -4.1874    0.9579   12.5323 H       1  UNL1        0.0000
    125 H          -4.4169    1.5552   14.1803 H       1  UNL1        0.0000
    126 H          -4.7548   -0.1282   13.7964 H       1  UNL1        0.0000
    127 C          -2.2574    3.6452   15.3490 C.3     1  UNL1        0.0000
    128 H          -3.1891    3.1103   15.5152 H       1  UNL1        0.0000
    129 H          -2.4199    4.6881   15.6212 H       1  UNL1        0.0000
    130 H          -1.4975    3.2384   16.0120 H       1  UNL1        0.0000
@<TRIPOS>BOND
     1   118   115    1
     2    40    37    1
     3   117   115    1
     4   116   115    1
     5    73    70    1
     6   115    31    1
     7    39    37    1
     8    38    37    1
     9    37    10    1
    10    70    72    1
    11    70    71    1
    12    70     5    1
    13    33    32    1
    14    96    95    1
    15    31    95    1
    16    31     5    1
    17    31   107    1
    18    97    95    1
    19    10    32    1
    20    10     5    1
    21    10    62    1
    22    34    32    1
    23    95    98    1
    24    32    35    1
    25   110   107    1
    26     5     1    1
    27   108   107    1
    28   107   109    1
    29    47    45    1
    30    65    62    1
    31    63    62    1
    32    46    45    1
    33    48    45    1
    34    62    64    1
    35    45     8    1
    36    15    20    1
    37    88    87    1
    38   101    99    1
    39   124   123    1
    40   112   111    1
    41     1     7    1
    42    87    90    1
    43    87    89    1
    44    87     9    1
    45    17    16    1
    46    80    78    1
    47    99   100    1
    48    99   102    1
    49    99    82    1
    50    79    78    1
    51     8     9    1
    52     8    82    1
    53     8     3    1
    54    81    78    1
    55   123   126    1
    56   123    82    1
    57   123   125    1
    58    78    29    1
    59   111     9    1
    60   111   114    1
    61   111   113    1
    62     9   127    1
    63    82   119    1
    64    16    18    1
    65    16    19    1
    66    16     6    1
    67     7     6    1
    68     7     2    1
    69    67    66    1
    70    29     6    1
    71    29    66    1
    72    29    25    1
    73   127   128    1
    74   127   129    1
    75   127   130    1
    76     6    36    1
    77   119   120    1
    78   119   121    1
    79   119   122    1
    80    69    66    1
    81    26    25    1
    82    66    68    1
    83    27    25    1
    84    25    28    1
    85     2     4    1
    86    86    83    1
    87    93    91    1
    88    50    49    1
    89    92    91    1
    90    36    91    1
    91    36    83    1
    92    36    58    1
    93    91    94    1
    94    84    83    1
    95    83    85    1
    96    13    11    1
    97    42    41    1
    98    49    51    1
    99    49    52    1
   100    49    30    1
   101    12    11    1
   102    59    58    1
   103    11     4    1
   104    11    14    1
   105    58    60    1
   106    58    61    1
   107     4    30    1
   108     4    57    1
   109   106   103    1
   110    41    44    1
   111    41    30    1
   112    41    43    1
   113    30    21    1
   114   104   103    1
   115   103    57    1
   116   103   105    1
   117    76    74    1
   118    57    74    1
   119    57    53    1
   120    21    23    1
   121    21    22    1
   122    21    24    1
   123    74    75    1
   124    74    77    1
   125    54    53    1
   126    53    55    1
   127    53    56    1
   128     1    20    0
   129     3    20    0
