@<TRIPOS>MOLECULE
1,2,3,8
 80 85 0 0 0
SMALL
GASTEIGER

@<TRIPOS>ATOM
      1 SI          5.1341    0.5840   12.7910 Si      1  UNL1        0.0000
      2 N           3.4902    0.8708   10.3518 N.pl3   1  UNL1        0.0000
      3 N           4.8007    3.4968   12.7745 N.pl3   1  UNL1        0.0000
      4 N           1.7547    2.8739   13.4134 N.pl3   1  UNL1        0.0000
      5 N           1.7052    0.8146   12.8319 N.pl3   1  UNL1        0.0000
      6 O           5.1017   -0.4401   11.2679 O.3     1  UNL1        0.0000
      7 O           5.2570    1.7800   14.1869 O.3     1  UNL1        0.0000
      8 C           2.4330    1.9509   12.6897 C.3     1  UNL1        0.0000
      9 C           0.6358    2.3270   13.9866 C.2     1  UNL1        0.0000
     10 H          -0.0328    2.9081   14.5882 H       1  UNL1        0.0000
     11 C           0.6041    1.0303   13.6189 C.2     1  UNL1        0.0000
     12 H          -0.0850    0.2466   13.8567 H       1  UNL1        0.0000
     13 C           2.0761    4.2331   13.6759 C.ar    1  UNL1        0.0000
     14 C           1.7490    5.2184   12.7447 C.ar    1  UNL1        0.0000
     15 C           2.0331    6.5381   13.0625 C.ar    1  UNL1        0.0000
     16 H           1.7956    7.3121   12.3469 H       1  UNL1        0.0000
     17 C           2.6085    6.8881   14.2754 C.ar    1  UNL1        0.0000
     18 C           2.8770    5.8898   15.1996 C.ar    1  UNL1        0.0000
     19 H           3.3017    6.1510   16.1582 H       1  UNL1        0.0000
     20 C           2.6080    4.5577   14.9242 C.ar    1  UNL1        0.0000
     21 C           2.8566    3.4993   15.9566 C.3     1  UNL1        0.0000
     22 H           1.9153    3.1806   16.4068 H       1  UNL1        0.0000
     23 H           3.4957    3.8854   16.7462 H       1  UNL1        0.0000
     24 H           3.3337    2.6247   15.5205 H       1  UNL1        0.0000
     25 C           2.9029    8.3247   14.5840 C.3     1  UNL1        0.0000
     26 H           3.4156    8.7972   13.7482 H       1  UNL1        0.0000
     27 H           3.5226    8.4128   15.4728 H       1  UNL1        0.0000
     28 H           1.9752    8.8711   14.7559 H       1  UNL1        0.0000
     29 C           1.1118    4.8612   11.4421 C.3     1  UNL1        0.0000
     30 H           0.6737    5.7398   10.9759 H       1  UNL1        0.0000
     31 H           0.3366    4.1082   11.5769 H       1  UNL1        0.0000
     32 H           1.8683    4.4551   10.7716 H       1  UNL1        0.0000
     33 C           1.9608   -0.4903   12.3308 C.ar    1  UNL1        0.0000
     34 C           3.0191   -1.2336   12.8565 C.ar    1  UNL1        0.0000
     35 C           3.2001   -2.5306   12.3942 C.ar    1  UNL1        0.0000
     36 H           4.0253   -3.1070   12.7856 H       1  UNL1        0.0000
     37 C           2.3634   -3.0889   11.4432 C.ar    1  UNL1        0.0000
     38 C           1.3092   -2.3296   10.9515 C.ar    1  UNL1        0.0000
     39 H           0.6499   -2.7548   10.2086 H       1  UNL1        0.0000
     40 C           1.0862   -1.0344   11.3894 C.ar    1  UNL1        0.0000
     41 C          -0.0692   -0.2454   10.8467 C.3     1  UNL1        0.0000
     42 H          -0.3289   -0.5991    9.8522 H       1  UNL1        0.0000
     43 H           0.1696    0.8137   10.7880 H       1  UNL1        0.0000
     44 H          -0.9466   -0.3631   11.4841 H       1  UNL1        0.0000
     45 C           2.5793   -4.4830   10.9377 C.3     1  UNL1        0.0000
     46 H           1.7038   -5.1001   11.1364 H       1  UNL1        0.0000
     47 H           3.4426   -4.9403   11.4134 H       1  UNL1        0.0000
     48 H           2.7396   -4.4711    9.8604 H       1  UNL1        0.0000
     49 C           3.9781   -0.6134   13.7949 C.3     1  UNL1        0.0000
     50 H           4.5893   -1.3758   14.2678 H       1  UNL1        0.0000
     51 H           3.4694   -0.0575   14.5778 H       1  UNL1        0.0000
     52 C           6.9819    0.1191   12.9894 C.ar    1  UNL1        0.0000
     53 C           7.3881   -1.2075   12.8869 C.ar    1  UNL1        0.0000
     54 H           6.6465   -1.9621   12.6777 H       1  UNL1        0.0000
     55 C           8.7152   -1.5676   13.0355 C.ar    1  UNL1        0.0000
     56 H           9.0066   -2.6059   12.9557 H       1  UNL1        0.0000
     57 C           9.6732   -0.5996   13.2850 C.ar    1  UNL1        0.0000
     58 H          10.7115   -0.8767   13.4010 H       1  UNL1        0.0000
     59 C           9.2905    0.7269   13.3808 C.ar    1  UNL1        0.0000
     60 H          10.0314    1.4918   13.5681 H       1  UNL1        0.0000
     61 C           7.9592    1.0761   13.2358 C.ar    1  UNL1        0.0000
     62 H           7.6763    2.1162   13.3115 H       1  UNL1        0.0000
     63 C           4.2363   -0.2486   10.3296 C.3     1  UNL1        0.0000
     64 C           4.0822   -1.1940    9.3029 C.2     1  UNL1        0.0000
     65 H           4.7078   -2.0708    9.3250 H       1  UNL1        0.0000
     66 C           3.1560   -0.9746    8.3119 C.2     1  UNL1        0.0000
     67 H           3.0281   -1.6908    7.5138 H       1  UNL1        0.0000
     68 C           2.3893    0.1852    8.3528 C.2     1  UNL1        0.0000
     69 H           1.6537    0.3971    7.5941 H       1  UNL1        0.0000
     70 C           2.5952    1.0728    9.3855 C.2     1  UNL1        0.0000
     71 H           2.0414    1.9993    9.4417 H       1  UNL1        0.0000
     72 C           5.3465    3.0434   13.9178 C.3     1  UNL1        0.0000
     73 C           5.9936    3.9173   14.8073 C.2     1  UNL1        0.0000
     74 H           6.4133    3.5004   15.7083 H       1  UNL1        0.0000
     75 C           6.0897    5.2523   14.4977 C.2     1  UNL1        0.0000
     76 H           6.5950    5.9352   15.1643 H       1  UNL1        0.0000
     77 C           5.5304    5.7050   13.3069 C.2     1  UNL1        0.0000
     78 H           5.5845    6.7427   13.0227 H       1  UNL1        0.0000
     79 C           4.8982    4.7975   12.4884 C.2     1  UNL1        0.0000
     80 H           4.4423    5.1154   11.5625 H       1  UNL1        0.0000
@<TRIPOS>BOND
     1    67    66    1
     2    69    68    1
     3    66    68    1
     4    66    64    2
     5    68    70    2
     6    64    65    1
     7    64    63    1
     8    70    71    1
     9    70     2    1
    10    42    41    1
    11    48    45    1
    12    39    38    1
    13    63     2    1
    14    63     6    1
    15    32    29    1
    16    43    41    1
    17    41    40    1
    18    41    44    1
    19    45    46    1
    20    45    47    1
    21    45    37    1
    22    38    40   ar
    23    38    37   ar
    24    30    29    1
    25     6     1    1
    26    40    33   ar
    27    29    31    1
    28    29    14    1
    29    37    35   ar
    30    80    79    1
    31    33     5    1
    32    33    34   ar
    33    16    15    1
    34    35    36    1
    35    35    34   ar
    36    79     3    1
    37    79    77    2
    38    54    53    1
    39     8     5    1
    40     8     4    1
    41    14    15   ar
    42    14    13   ar
    43     3    72    1
    44     1    52    1
    45     1    49    1
    46     1     7    1
    47     5    11    1
    48    34    49    1
    49    53    52   ar
    50    53    55   ar
    51    56    55    1
    52    52    61   ar
    53    78    77    1
    54    55    57   ar
    55    15    17   ar
    56    61    62    1
    57    61    59   ar
    58    57    59   ar
    59    57    58    1
    60    77    75    1
    61    59    60    1
    62     4    13    1
    63     4     9    1
    64    11    12    1
    65    11     9    2
    66    13    20   ar
    67    26    25    1
    68    49    50    1
    69    49    51    1
    70    72     7    1
    71    72    73    1
    72     9    10    1
    73    17    25    1
    74    17    18   ar
    75    75    73    2
    76    75    76    1
    77    25    28    1
    78    25    27    1
    79    73    74    1
    80    20    18   ar
    81    20    21    1
    82    18    19    1
    83    24    21    1
    84    21    22    1
    85    21    23    1
