@<TRIPOS>MOLECULE
1,2
 33 32 0 0 0
SMALL
GASTEIGER

@<TRIPOS>ATOM
      1 AS         12.5153    6.7353   14.8178 As      1  UNL1        0.0000
      2 AS         11.8611    4.0158   12.4840 As      1  UNL1        0.0000
      3 SI         13.9779    5.0187   15.4127 Si      1  UNL1        0.0000
      4 C          13.4219    3.1286   13.2953 C.3     1  UNL1        0.0000
      5 C          14.4783    4.1192   13.7825 C.3     1  UNL1        0.0000
      6 C          13.7384    8.1883   14.3775 C.3     1  UNL1        0.0000
      7 C          11.9133    7.3712   16.5593 C.3     1  UNL1        0.0000
      8 C          12.4451    4.0365   10.6284 C.3     1  UNL1        0.0000
      9 C          10.6820    2.4708   12.3988 C.3     1  UNL1        0.0000
     10 C          15.5715    5.6387   16.2743 C.3     1  UNL1        0.0000
     11 C          13.0059    3.8321   16.5619 C.3     1  UNL1        0.0000
     12 H          13.8419    2.4637   12.5267 H       1  UNL1        0.0000
     13 H          13.0780    2.4969   14.1203 H       1  UNL1        0.0000
     14 H          15.4338    3.6042   13.9111 H       1  UNL1        0.0000
     15 H          14.6310    4.8816   13.0043 H       1  UNL1        0.0000
     16 H          14.4192    8.4043   15.2053 H       1  UNL1        0.0000
     17 H          14.3209    7.9334   13.4892 H       1  UNL1        0.0000
     18 H          13.1524    9.0851   14.1534 H       1  UNL1        0.0000
     19 H          12.7538    7.5988   17.2216 H       1  UNL1        0.0000
     20 H          11.3172    8.2779   16.4169 H       1  UNL1        0.0000
     21 H          11.2770    6.6180   17.0287 H       1  UNL1        0.0000
     22 H          12.7465    3.0394   10.2940 H       1  UNL1        0.0000
     23 H          11.6177    4.3914   10.0068 H       1  UNL1        0.0000
     24 H          13.2845    4.7252   10.5030 H       1  UNL1        0.0000
     25 H          11.2111    1.5887   12.0245 H       1  UNL1        0.0000
     26 H          10.2786    2.2521   13.3907 H       1  UNL1        0.0000
     27 H           9.8450    2.6979   11.7326 H       1  UNL1        0.0000
     28 H          16.1635    4.8158   16.6586 H       1  UNL1        0.0000
     29 H          16.1956    6.2052   15.5895 H       1  UNL1        0.0000
     30 H          15.3223    6.2846   17.1111 H       1  UNL1        0.0000
     31 H          13.4953    2.8710   16.6907 H       1  UNL1        0.0000
     32 H          12.8823    4.2721   17.5483 H       1  UNL1        0.0000
     33 H          12.0108    3.6550   16.1505 H       1  UNL1        0.0000
@<TRIPOS>BOND
     1    23     8    1
     2    22     8    1
     3    24     8    1
     4     8     2    1
     5    27     9    1
     6    25     9    1
     7     9     2    1
     8     9    26    1
     9     2     4    1
    10    12     4    1
    11    15     5    1
    12     4     5    1
    13     4    13    1
    14    17     6    1
    15     5    14    1
    16     5     3    1
    17    18     6    1
    18     6     1    1
    19     6    16    1
    20     1     3    1
    21     1     7    1
    22     3    10    1
    23     3    11    1
    24    29    10    1
    25    33    11    1
    26    10    28    1
    27    10    30    1
    28    20     7    1
    29     7    21    1
    30     7    19    1
    31    11    31    1
    32    11    32    1
