@<TRIPOS>MOLECULE
2,3,5,6,8,20,21,22,24,34,35
 63 70 0 0 0
SMALL
GASTEIGER

@<TRIPOS>ATOM
      1 SI          6.4296    0.3537   12.1093 Si      1  UNL1        0.0000
      2 C           5.0643    1.6176   12.4428 C.3     1  UNL1        0.0000
      3 C           5.3564    2.9750   12.7347 C.3     1  UNL1        0.0000
      4 H           6.2535    3.3025   13.2437 H       1  UNL1        0.0000
      5 C           4.2137    3.7669   12.4529 C.2     1  UNL1        0.0000
      6 C           3.2164    2.8937   11.9524 C.2     1  UNL1        0.0000
      7 H           2.1931    3.1505   11.7115 H       1  UNL1        0.0000
      8 C           3.7478    1.5877   11.9150 C.3     1  UNL1        0.0000
      9 H           3.1895    0.6964   11.6471 H       1  UNL1        0.0000
     10 C           4.1100    5.2710   12.6555 C.3     1  UNL1        0.0000
     11 C           4.7035    5.6161   14.0358 C.3     1  UNL1        0.0000
     12 H           4.2473    4.9779   14.7903 H       1  UNL1        0.0000
     13 H           4.4933    6.6508   14.2931 H       1  UNL1        0.0000
     14 H           5.7781    5.4706   14.0702 H       1  UNL1        0.0000
     15 C           2.6257    5.6713   12.7209 C.3     1  UNL1        0.0000
     16 H           2.1187    5.5165   11.7732 H       1  UNL1        0.0000
     17 H           2.5269    6.7186   12.9931 H       1  UNL1        0.0000
     18 H           2.1263    5.0760   13.4831 H       1  UNL1        0.0000
     19 C           4.8566    5.9953   11.5014 C.3     1  UNL1        0.0000
     20 C           5.5521    5.0401   10.3520 C.3     1  UNL1        0.0000
     21 C           6.6951    0.9761   10.3476 C.3     1  UNL1        0.0000
     22 C           7.4509    2.1271    9.9961 C.3     1  UNL1        0.0000
     23 H           8.2727    2.5288   10.5815 H       1  UNL1        0.0000
     24 C           7.1031    2.5615    8.6982 C.3     1  UNL1        0.0000
     25 H           7.6379    3.2860    8.0990 H       1  UNL1        0.0000
     26 C           5.4656    1.5727    6.9538 C.ar    1  UNL1        0.0000
     27 H           5.7026    2.2726    6.1633 H       1  UNL1        0.0000
     28 C           4.5399    0.5775    6.7647 C.ar    1  UNL1        0.0000
     29 H           4.0343    0.4865    5.8152 H       1  UNL1        0.0000
     30 C           4.2226   -0.3277    7.7912 C.ar    1  UNL1        0.0000
     31 H           3.4757   -1.0853    7.6035 H       1  UNL1        0.0000
     32 C           4.8425   -0.2717    9.0160 C.ar    1  UNL1        0.0000
     33 H           4.6145   -1.0022    9.7817 H       1  UNL1        0.0000
     34 C           5.8226    0.7137    9.2413 C.ar    1  UNL1        0.0000
     35 C           6.1114    1.6703    8.1988 C.ar    1  UNL1        0.0000
     36 C           7.9698    0.6794   13.1867 C.3     1  UNL1        0.0000
     37 H           7.7428    0.5189   14.2348 H       1  UNL1        0.0000
     38 H           8.3452    1.6919   13.0811 H       1  UNL1        0.0000
     39 H           8.7720    0.0014   12.9172 H       1  UNL1        0.0000
     40 C           5.8845   -1.4638   12.2947 C.3     1  UNL1        0.0000
     41 H           4.8249   -1.5995   12.1073 H       1  UNL1        0.0000
     42 H           6.0836   -1.8115   13.3026 H       1  UNL1        0.0000
     43 H           6.4313   -2.1049   11.6114 H       1  UNL1        0.0000
     44 B           4.2938    7.4793   10.8106 B       1  UNL1        0.0000
     45 B           6.5668    5.8764   11.4417 B       1  UNL1        0.0000
     46 B           6.9907    5.8109    9.7459 B       1  UNL1        0.0000
     47 B           5.4999    5.8233    8.8172 B       1  UNL1        0.0000
     48 B           4.1514    5.9571    9.9418 B       1  UNL1        0.0000
     49 B           5.7800    7.4305   11.7443 B       1  UNL1        0.0000
     50 B           5.7267    8.3231   10.2058 B       1  UNL1        0.0000
     51 B           7.1487    7.3371   10.6197 B       1  UNL1        0.0000
     52 B           6.4783    7.3063    8.9561 B       1  UNL1        0.0000
     53 B           4.7008    7.3922    9.0767 B       1  UNL1        0.0000
     54 H           7.1355    5.2435   12.2583 H       1  UNL1        0.0000
     55 H           7.9000    5.1253    9.4415 H       1  UNL1        0.0000
     56 H           8.1991    7.7970   10.8803 H       1  UNL1        0.0000
     57 H           7.0672    7.7519    8.0408 H       1  UNL1        0.0000
     58 H           5.7733    9.4982   10.1840 H       1  UNL1        0.0000
     59 H           4.0288    7.9034    8.2596 H       1  UNL1        0.0000
     60 H           3.3350    7.9879   11.2564 H       1  UNL1        0.0000
     61 H           3.1411    5.3674    9.8049 H       1  UNL1        0.0000
     62 H           5.8196    7.9075   12.8162 H       1  UNL1        0.0000
     63 H           5.3759    5.1078    7.8773 H       1  UNL1        0.0000
@<TRIPOS>BOND
     1    29    28    1
     2    27    26    1
     3    28    26   ar
     4    28    30   ar
     5    26    35   ar
     6    31    30    1
     7    30    32   ar
     8    63    47    1
     9    57    52    1
    10    25    24    1
    11    35    24    1
    12    35    34   ar
    13    59    53    1
    14    24    22    1
    15    47    46    1
    16    47    20    1
    17    52    53    1
    18    52    50    1
    19    32    34   ar
    20    32    33    1
    21    34    21    1
    22    55    46    1
    23    46    51    1
    24    46    45    1
    25    61    48    1
    26    48    20    1
    27    48    44    1
    28    48    19    1
    29    22    21    1
    30    22    23    1
    31    58    50    1
    32    50    51    1
    33    50    44    1
    34    21     1    1
    35    20    45    1
    36    20    19    1
    37    51    56    1
    38    51    49    1
    39    44    60    1
    40    44    49    1
    41    45    19    1
    42    45    54    1
    43    19    10    1
    44    43    40    1
    45     9     8    1
    46     7     6    1
    47    49    62    1
    48    16    15    1
    49     8     6    1
    50     8     2    1
    51     6     5    2
    52    41    40    1
    53     1    40    1
    54     1     2    1
    55     1    36    1
    56    40    42    1
    57     2     3    1
    58     5    10    1
    59     5     3    1
    60    10    15    1
    61    10    11    1
    62    15    17    1
    63    15    18    1
    64     3     4    1
    65    39    36    1
    66    38    36    1
    67    36    37    1
    68    11    14    1
    69    11    13    1
    70    11    12    1
