@<TRIPOS>MOLECULE
2,3,4,5,6,11,22,23,24,25,26
 50 51 0 0 0
SMALL
GASTEIGER

@<TRIPOS>ATOM
      1 SI          4.3507    8.5945    2.2798 Si      1  UNL1        0.0000
      2 C           4.7411    6.8433    1.6523 C.3     1  UNL1        0.0000
      3 C           4.0134    5.7140    2.1511 C.3     1  UNL1        0.0000
      4 C           4.9241    4.5869    2.2189 C.3     1  UNL1        0.0000
      5 C           6.1995    5.0258    1.6671 C.2     1  UNL1        0.0000
      6 C           6.0918    6.4026    1.3586 C.2     1  UNL1        0.0000
      7 C           2.5310    5.5496    2.2409 C.3     1  UNL1        0.0000
      8 H           2.1616    5.0775    1.3266 H       1  UNL1        0.0000
      9 H           2.0222    6.5009    2.3499 H       1  UNL1        0.0000
     10 H           2.2536    4.9038    3.0733 H       1  UNL1        0.0000
     11 C           4.8938    3.8371    3.4243 C.3     1  UNL1        0.0000
     12 H           5.6074    3.0298    3.5597 H       1  UNL1        0.0000
     13 H           3.9242    3.6224    3.8609 H       1  UNL1        0.0000
     14 C           7.3455    4.1220    1.3207 C.3     1  UNL1        0.0000
     15 H           7.3219    3.8831    0.2544 H       1  UNL1        0.0000
     16 H           7.2775    3.1919    1.8813 H       1  UNL1        0.0000
     17 H           8.2999    4.5928    1.5496 H       1  UNL1        0.0000
     18 C           7.1287    7.1959    0.6222 C.3     1  UNL1        0.0000
     19 H           6.6555    7.8853   -0.0744 H       1  UNL1        0.0000
     20 H           7.7791    6.5285    0.0589 H       1  UNL1        0.0000
     21 H           7.7545    7.7713    1.3052 H       1  UNL1        0.0000
     22 C           4.8566    8.1838    4.0697 C.2     1  UNL1        0.0000
     23 C           4.0982    7.2828    4.9107 C.3     1  UNL1        0.0000
     24 C           4.9817    6.7152    5.8674 C.2     1  UNL1        0.0000
     25 C           6.2909    7.2439    5.6342 C.2     1  UNL1        0.0000
     26 C           6.2337    8.1332    4.5174 C.2     1  UNL1        0.0000
     27 C           2.6091    7.2305    5.0588 C.3     1  UNL1        0.0000
     28 H           2.3253    7.6788    6.0136 H       1  UNL1        0.0000
     29 H           2.2388    6.2062    5.0568 H       1  UNL1        0.0000
     30 H           2.1138    7.7860    4.2703 H       1  UNL1        0.0000
     31 C           4.5805    5.8780    7.0456 C.3     1  UNL1        0.0000
     32 H           4.3919    6.5167    7.9116 H       1  UNL1        0.0000
     33 H           5.3681    5.1730    7.3051 H       1  UNL1        0.0000
     34 H           3.6736    5.3168    6.8319 H       1  UNL1        0.0000
     35 C           7.4646    7.0919    6.5560 C.3     1  UNL1        0.0000
     36 H           7.4097    7.8491    7.3413 H       1  UNL1        0.0000
     37 H           8.3989    7.2200    6.0148 H       1  UNL1        0.0000
     38 H           7.4694    6.1100    7.0240 H       1  UNL1        0.0000
     39 C           7.3374    9.0899    4.1715 C.3     1  UNL1        0.0000
     40 H           7.6740    9.6111    5.0695 H       1  UNL1        0.0000
     41 H           6.9948    9.8323    3.4589 H       1  UNL1        0.0000
     42 H           8.1972    8.5675    3.7504 H       1  UNL1        0.0000
     43 C           5.3538    9.9758    1.4227 C.3     1  UNL1        0.0000
     44 H           4.9987   10.0928    0.4040 H       1  UNL1        0.0000
     45 H           6.4204    9.8024    1.3805 H       1  UNL1        0.0000
     46 H           5.1837   10.9187    1.9321 H       1  UNL1        0.0000
     47 C           2.5659    9.2366    2.0409 C.3     1  UNL1        0.0000
     48 H           2.4495    9.5763    1.0176 H       1  UNL1        0.0000
     49 H           2.3969   10.0907    2.6885 H       1  UNL1        0.0000
     50 H           1.7779    8.5190    2.2309 H       1  UNL1        0.0000
@<TRIPOS>BOND
     1    19    18    1
     2    20    18    1
     3    15    14    1
     4    44    43    1
     5    18    21    1
     6    18     6    1
     7    48    47    1
     8    14    17    1
     9    14     5    1
    10    14    16    1
    11     8     7    1
    12     6     2    1
    13     6     5    2
    14    45    43    1
    15    43    46    1
    16    43     1    1
    17     2     3    1
    18     2     1    1
    19     5     4    1
    20    47    50    1
    21    47     1    1
    22    47    49    1
    23     3     4    1
    24     3     7    1
    25     4    11    1
    26     7     9    1
    27     7    10    1
    28     1    22    1
    29    11    12    1
    30    11    13    1
    31    41    39    1
    32    42    39    1
    33    22    26    2
    34    22    23    1
    35    39    26    1
    36    39    40    1
    37    30    27    1
    38    26    25    1
    39    23    27    1
    40    23    24    1
    41    29    27    1
    42    27    28    1
    43    25    24    2
    44    25    35    1
    45    24    31    1
    46    37    35    1
    47    35    38    1
    48    35    36    1
    49    34    31    1
    50    31    33    1
    51    31    32    1
