@<TRIPOS>MOLECULE
2,3,5,6,7,9,16,17,19,20,21
 38 39 0 0 0
SMALL
GASTEIGER

@<TRIPOS>ATOM
      1 SI         -2.7950   -2.7691   -1.3597 Si      1  UNL1        0.0000
      2 C          -4.5685   -3.3708   -1.0822 C.3     1  UNL1        0.0000
      3 C          -5.2386   -4.0112   -2.1610 C.3     1  UNL1        0.0000
      4 H          -4.7896   -4.6878   -2.8756 H       1  UNL1        0.0000
      5 C          -6.6454   -3.7241   -2.0871 C.3     1  UNL1        0.0000
      6 C          -6.8427   -2.9139   -0.8897 C.2     1  UNL1        0.0000
      7 C          -5.5696   -2.6752   -0.3143 C.2     1  UNL1        0.0000
      8 H          -5.3971   -2.1946    0.6390 H       1  UNL1        0.0000
      9 C          -7.2545   -3.3308   -3.3109 C.3     1  UNL1        0.0000
     10 H          -8.3007   -3.0384   -3.3089 H       1  UNL1        0.0000
     11 H          -6.9678   -3.8842   -4.2006 H       1  UNL1        0.0000
     12 C          -8.1691   -2.5807   -0.2748 C.3     1  UNL1        0.0000
     13 H          -8.4991   -3.4024    0.3653 H       1  UNL1        0.0000
     14 H          -8.9228   -2.4218   -1.0445 H       1  UNL1        0.0000
     15 H          -8.0939   -1.6792    0.3303 H       1  UNL1        0.0000
     16 C          -3.3484   -1.5958   -2.7381 C.2     1  UNL1        0.0000
     17 C          -3.8728   -2.0832   -3.9851 C.2     1  UNL1        0.0000
     18 H          -3.5624   -2.9935   -4.4796 H       1  UNL1        0.0000
     19 C          -4.6593   -1.0705   -4.5827 C.2     1  UNL1        0.0000
     20 C          -4.6841    0.0445   -3.6882 C.2     1  UNL1        0.0000
     21 C          -3.9045   -0.2817   -2.5364 C.3     1  UNL1        0.0000
     22 H          -3.5844    0.4324   -1.7894 H       1  UNL1        0.0000
     23 C          -5.2409   -1.0896   -5.9649 C.3     1  UNL1        0.0000
     24 H          -4.6505   -0.4555   -6.6295 H       1  UNL1        0.0000
     25 H          -6.2648   -0.7172   -5.9606 H       1  UNL1        0.0000
     26 H          -5.2413   -2.1012   -6.3655 H       1  UNL1        0.0000
     27 C          -5.2367    1.4005   -4.0139 C.3     1  UNL1        0.0000
     28 H          -4.5378    1.9327   -4.6625 H       1  UNL1        0.0000
     29 H          -5.3805    1.9814   -3.1057 H       1  UNL1        0.0000
     30 H          -6.1914    1.3197   -4.5301 H       1  UNL1        0.0000
     31 C          -1.6598   -4.1596   -2.0074 C.3     1  UNL1        0.0000
     32 H          -0.7728   -4.2387   -1.3901 H       1  UNL1        0.0000
     33 H          -1.3349   -3.9698   -3.0250 H       1  UNL1        0.0000
     34 H          -2.1572   -5.1237   -1.9913 H       1  UNL1        0.0000
     35 C          -2.0660   -1.8639    0.1500 C.3     1  UNL1        0.0000
     36 H          -1.1045   -2.2895    0.4113 H       1  UNL1        0.0000
     37 H          -2.7112   -1.9479    1.0172 H       1  UNL1        0.0000
     38 H          -1.9167   -0.8088   -0.0502 H       1  UNL1        0.0000
@<TRIPOS>BOND
     1    24    23    1
     2    26    23    1
     3    23    25    1
     4    23    19    1
     5    28    27    1
     6    19    17    1
     7    19    20    2
     8    30    27    1
     9    18    17    1
    10    11     9    1
    11    27    20    1
    12    27    29    1
    13    17    16    2
    14    20    21    1
    15     9    10    1
    16     9     5    1
    17    33    31    1
    18     4     3    1
    19    16    21    1
    20    16     1    1
    21    21    22    1
    22     3     5    1
    23     3     2    1
    24     5     6    1
    25    31    34    1
    26    31    32    1
    27    31     1    1
    28     1     2    1
    29     1    35    1
    30     2     7    1
    31    14    12    1
    32     6     7    2
    33     6    12    1
    34     7     8    1
    35    12    15    1
    36    12    13    1
    37    38    35    1
    38    35    36    1
    39    35    37    1
