@<TRIPOS>MOLECULE
2,3,7,8,9,10,11,12
 50 51 0 0 0
SMALL
GASTEIGER

@<TRIPOS>ATOM
      1 SI          1.7743    0.0828   -4.6956 Si      1  UNL1        0.0000
      2 C           0.7822    1.5503   -5.3748 C.2     1  UNL1        0.0000
      3 C           1.0826    2.9514   -5.0580 C.3     1  UNL1        0.0000
      4 C           0.0679    3.7566   -5.6510 C.2     1  UNL1        0.0000
      5 C          -0.8398    2.9127   -6.2885 C.2     1  UNL1        0.0000
      6 C          -0.4229    1.5733   -6.1081 C.2     1  UNL1        0.0000
      7 C           1.1649    0.2519   -2.8958 C.2     1  UNL1        0.0000
      8 C           1.7677    1.1364   -1.9488 C.3     1  UNL1        0.0000
      9 C           0.7619    1.6333   -1.0784 C.2     1  UNL1        0.0000
     10 C          -0.4793    1.0595   -1.4664 C.2     1  UNL1        0.0000
     11 C          -0.2398    0.2411   -2.5976 C.2     1  UNL1        0.0000
     12 C           1.9284    3.3470   -3.9532 C.3     1  UNL1        0.0000
     13 H           1.9892    4.4268   -3.7847 H       1  UNL1        0.0000
     14 H           2.8981    2.8591   -3.8710 H       1  UNL1        0.0000
     15 C           0.0011    5.2495   -5.5780 C.3     1  UNL1        0.0000
     16 H          -0.5599    5.6475   -6.4208 H       1  UNL1        0.0000
     17 H           1.0017    5.6814   -5.5945 H       1  UNL1        0.0000
     18 H          -0.4948    5.5716   -4.6568 H       1  UNL1        0.0000
     19 C          -2.0584    3.3531   -7.0381 C.3     1  UNL1        0.0000
     20 H          -2.5556    4.1677   -6.5132 H       1  UNL1        0.0000
     21 H          -2.7635    2.5327   -7.1499 H       1  UNL1        0.0000
     22 H          -1.7900    3.7063   -8.0358 H       1  UNL1        0.0000
     23 C          -1.1163    0.4025   -6.7329 C.3     1  UNL1        0.0000
     24 H          -2.1248    0.2774   -6.3332 H       1  UNL1        0.0000
     25 H          -0.5608   -0.5144   -6.5668 H       1  UNL1        0.0000
     26 H          -1.2089    0.5558   -7.8091 H       1  UNL1        0.0000
     27 C           3.2346    1.3068   -1.6853 C.3     1  UNL1        0.0000
     28 H           3.5087    2.3588   -1.5846 H       1  UNL1        0.0000
     29 H           3.8296    0.8571   -2.4737 H       1  UNL1        0.0000
     30 H           3.4905    0.8112   -0.7454 H       1  UNL1        0.0000
     31 C           1.0024    2.4903    0.1278 C.3     1  UNL1        0.0000
     32 H           0.0983    3.0283    0.4108 H       1  UNL1        0.0000
     33 H           1.7962    3.2144   -0.0631 H       1  UNL1        0.0000
     34 H           1.3084    1.8723    0.9757 H       1  UNL1        0.0000
     35 C          -1.7802    1.2063   -0.7319 C.3     1  UNL1        0.0000
     36 H          -1.7827    0.5696    0.1565 H       1  UNL1        0.0000
     37 H          -2.6213    0.9171   -1.3607 H       1  UNL1        0.0000
     38 H          -1.9355    2.2365   -0.4085 H       1  UNL1        0.0000
     39 C          -1.3107   -0.5644   -3.2756 C.3     1  UNL1        0.0000
     40 H          -1.7846   -1.2409   -2.5604 H       1  UNL1        0.0000
     41 H          -0.8981   -1.1619   -4.0826 H       1  UNL1        0.0000
     42 H          -2.0909    0.0856   -3.6881 H       1  UNL1        0.0000
     43 C           1.4957   -1.6691   -5.4224 C.3     1  UNL1        0.0000
     44 H           2.2255   -2.3485   -4.9946 H       1  UNL1        0.0000
     45 H           1.6602   -1.6524   -6.4942 H       1  UNL1        0.0000
     46 H           0.5172   -2.0973   -5.2426 H       1  UNL1        0.0000
     47 C           3.6522    0.3031   -5.0252 C.3     1  UNL1        0.0000
     48 H           4.0271    1.2992   -4.8208 H       1  UNL1        0.0000
     49 H           3.8473    0.0972   -6.0732 H       1  UNL1        0.0000
     50 H           4.2362   -0.4059   -4.4467 H       1  UNL1        0.0000
@<TRIPOS>BOND
     1    22    19    1
     2    26    23    1
     3    21    19    1
     4    19    20    1
     5    19     5    1
     6    23    25    1
     7    23    24    1
     8    23     6    1
     9    45    43    1
    10    16    15    1
    11     5     6    1
    12     5     4    2
    13     6     2    2
    14    49    47    1
    15     4    15    1
    16     4     3    1
    17    17    15    1
    18    15    18    1
    19    43    46    1
    20    43    44    1
    21    43     1    1
    22     2     3    1
    23     2     1    1
    24     3    12    1
    25    47    48    1
    26    47     1    1
    27    47    50    1
    28     1     7    1
    29    41    39    1
    30    12    14    1
    31    12    13    1
    32    42    39    1
    33    39    11    1
    34    39    40    1
    35     7    11    2
    36     7     8    1
    37    11    10    1
    38    29    27    1
    39     8    27    1
    40     8     9    1
    41    27    28    1
    42    27    30    1
    43    10     9    2
    44    10    35    1
    45    37    35    1
    46     9    31    1
    47    35    38    1
    48    35    36    1
    49    33    31    1
    50    31    32    1
    51    31    34    1
