@<TRIPOS>MOLECULE
1,2,21,23,24,26,42
 52 57 0 0 0
SMALL
GASTEIGER

@<TRIPOS>ATOM
      1 C           4.3799    6.2684    2.2222 C.3     1  UNL1        0.0354
      2 C           5.1947    5.5168    1.2858 C.ar    1  UNL1       -0.0280
      3 C           6.4887    4.9851    1.3936 C.ar    1  UNL1       -0.0571
      4 H           7.0539    5.0880    2.3104 H       1  UNL1        0.0621
      5 C           7.0151    4.2827    0.3311 C.ar    1  UNL1       -0.0614
      6 H           8.0100    3.8687    0.4079 H       1  UNL1        0.0618
      7 C           6.2871    4.0866   -0.8441 C.ar    1  UNL1       -0.0612
      8 H           6.7374    3.5406   -1.6588 H       1  UNL1        0.0618
      9 C           4.9984    4.5615   -0.9643 C.ar    1  UNL1       -0.0537
     10 H           4.4262    4.3792   -1.8623 H       1  UNL1        0.0624
     11 C           4.4332    5.2671    0.0960 C.ar    1  UNL1       -0.0135
     12 C           3.1029    5.7642    0.3157 C.ar    1  UNL1       -0.0135
     13 C           1.9471    5.6926   -0.4585 C.ar    1  UNL1       -0.0537
     14 H           1.9823    5.2610   -1.4477 H       1  UNL1        0.0624
     15 C           0.7574    6.1558    0.0646 C.ar    1  UNL1       -0.0612
     16 H          -0.1476    6.0969   -0.5208 H       1  UNL1        0.0618
     17 C           0.7021    6.6847    1.3571 C.ar    1  UNL1       -0.0614
     18 H          -0.2478    7.0203    1.7466 H       1  UNL1        0.0618
     19 C           1.8289    6.7770    2.1449 C.ar    1  UNL1       -0.0571
     20 H           1.7567    7.1762    3.1471 H       1  UNL1        0.0621
     21 C           3.0562    6.3238    1.6382 C.ar    1  UNL1       -0.0280
     22 C           5.8892    8.4751    3.0958 C.3     1  UNL1        0.0306
     23 C           6.9518    8.8181    2.2151 C.2     1  UNL1       -0.0604
     24 C           6.6129    9.9997    1.5235 C.2     1  UNL1       -0.0544
     25 H           7.2809   10.5576    0.8842 H       1  UNL1        0.0623
     26 C           5.3507   10.4485    1.9919 C.ar    1  UNL1       -0.0207
     27 C           4.6021   11.6147    1.7331 C.ar    1  UNL1       -0.0509
     28 H           4.9692   12.3589    1.0410 H       1  UNL1        0.0626
     29 C           3.4149   11.7803    2.3934 C.ar    1  UNL1       -0.0436
     30 C           2.4416   12.9188    2.2887 C.3     1  UNL1       -0.0271
     31 H           2.3091   13.2645    1.2633 H       1  UNL1        0.0313
     32 H           2.7957   13.7644    2.8857 H       1  UNL1        0.0313
     33 C           1.1528   12.3358    2.8858 C.3     1  UNL1       -0.0450
     34 H           0.5239   13.0977    3.3440 H       1  UNL1        0.0272
     35 H           0.5781   11.8470    2.0970 H       1  UNL1        0.0272
     36 C           1.6283   11.2818    3.8957 C.3     1  UNL1       -0.0271
     37 H           1.7841   11.7330    4.8802 H       1  UNL1        0.0313
     38 H           0.9177   10.4629    4.0107 H       1  UNL1        0.0313
     39 C           2.9436   10.8309    3.3288 C.ar    1  UNL1       -0.0439
     40 C           3.6538    9.7020    3.6352 C.ar    1  UNL1       -0.0537
     41 H           3.3059    9.0201    4.3987 H       1  UNL1        0.0624
     42 C           4.8815    9.4850    2.9704 C.ar    1  UNL1       -0.0286
     43 C           4.6598    6.3614    3.7075 C.3     1  UNL1       -0.0370
     44 H           4.8728    5.3651    4.1109 H       1  UNL1        0.0278
     45 H           3.7590    6.7233    4.2073 H       1  UNL1        0.0278
     46 C           5.8431    7.3025    4.0375 C.3     1  UNL1       -0.0374
     47 H           5.7433    7.6498    5.0713 H       1  UNL1        0.0278
     48 H           6.7837    6.7520    3.9698 H       1  UNL1        0.0278
     49 C           8.2798    8.1210    2.1143 C.3     1  UNL1       -0.0426
     50 H           8.9618    8.7151    1.5101 H       1  UNL1        0.0275
     51 H           8.1905    7.1390    1.6462 H       1  UNL1        0.0275
     52 H           8.7207    7.9927    3.1035 H       1  UNL1        0.0275
@<TRIPOS>BOND
     1    10     9    1
     2     8     7    1
     3    14    13    1
     4     9     7   ar
     5     9    11   ar
     6     7     5   ar
     7    16    15    1
     8    13    15   ar
     9    13    12   ar
    10    15    17   ar
    11    11    12    1
    12    11     2   ar
    13    12    21   ar
    14     5     6    1
    15     5     3   ar
    16    25    24    1
    17    28    27    1
    18    31    30    1
    19     2     3   ar
    20     2     1    1
    21    17    18    1
    22    17    19   ar
    23     3     4    1
    24    50    49    1
    25    24    26    1
    26    24    23    2
    27    21    19   ar
    28    21     1    1
    29    51    49    1
    30    27    26   ar
    31    27    29   ar
    32    26    42   ar
    33    35    33    1
    34    49    23    1
    35    49    52    1
    36    19    20    1
    37    23    22    1
    38     1    43    1
    39    30    29    1
    40    30    32    1
    41    30    33    1
    42    29    39   ar
    43    33    34    1
    44    33    36    1
    45    42    22    1
    46    42    40   ar
    47    22    46    1
    48    39    40   ar
    49    39    36    1
    50    40    41    1
    51    43    46    1
    52    43    44    1
    53    43    45    1
    54    36    38    1
    55    36    37    1
    56    48    46    1
    57    46    47    1
