@<TRIPOS>MOLECULE
2,3,4,5,6,23,24,29
 51 52 0 0 0
SMALL
GASTEIGER

@<TRIPOS>ATOM
      1 SI          9.6348   11.6497    5.5597 Si      1  UNL1        0.0000
      2 C          10.8896   10.6390    6.5443 C.3     1  UNL1        0.0000
      3 C          10.6026    9.5415    7.3962 C.2     1  UNL1        0.0000
      4 C          11.7309    8.6961    7.4461 C.2     1  UNL1        0.0000
      5 C          12.7557    9.2752    6.6399 C.3     1  UNL1        0.0000
      6 C          12.2287   10.4644    6.0733 C.3     1  UNL1        0.0000
      7 C           9.4172    9.3914    8.3000 C.3     1  UNL1        0.0000
      8 H           9.7306    9.5377    9.3367 H       1  UNL1        0.0000
      9 H           8.9782    8.3957    8.2298 H       1  UNL1        0.0000
     10 H           8.6526   10.1289    8.0762 H       1  UNL1        0.0000
     11 C          11.8847    7.5073    8.3425 C.3     1  UNL1        0.0000
     12 H          12.3033    7.8084    9.3059 H       1  UNL1        0.0000
     13 H          12.5484    6.7669    7.9000 H       1  UNL1        0.0000
     14 H          10.9226    7.0334    8.5242 H       1  UNL1        0.0000
     15 C          14.1909    8.8409    6.6037 C.3     1  UNL1        0.0000
     16 H          14.7871    9.4470    7.2900 H       1  UNL1        0.0000
     17 H          14.6102    8.9468    5.6040 H       1  UNL1        0.0000
     18 H          14.2882    7.7993    6.9007 H       1  UNL1        0.0000
     19 C          13.0388   11.4707    5.3181 C.3     1  UNL1        0.0000
     20 H          13.3337   12.2933    5.9737 H       1  UNL1        0.0000
     21 H          12.4783   11.8847    4.4841 H       1  UNL1        0.0000
     22 H          13.9438   11.0139    4.9239 H       1  UNL1        0.0000
     23 C           9.6544   10.5717    3.9965 C.2     1  UNL1        0.0000
     24 C           9.2250    9.2343    3.9740 C.2     1  UNL1        0.0000
     25 C           9.1349    8.7729    2.5346 C.3     1  UNL1        0.0000
     26 H           9.7028    7.8550    2.3556 H       1  UNL1        0.0000
     27 C           9.7010    9.9416    1.7766 C.2     1  UNL1        0.0000
     28 C           9.9449   10.9620    2.6257 C.2     1  UNL1        0.0000
     29 C           8.9422    8.4196    5.0854 C.3     1  UNL1        0.0000
     30 H           8.5210    7.4449    4.8600 H       1  UNL1        0.0000
     31 H           8.4583    8.8811    5.9356 H       1  UNL1        0.0000
     32 C           7.6700    8.5228    2.1526 C.3     1  UNL1        0.0000
     33 H           7.2505    7.7283    2.7654 H       1  UNL1        0.0000
     34 H           7.5947    8.2344    1.1069 H       1  UNL1        0.0000
     35 H           7.0867    9.4277    2.3090 H       1  UNL1        0.0000
     36 C           9.8886    9.8825    0.2998 C.3     1  UNL1        0.0000
     37 H          10.6917   10.5410   -0.0238 H       1  UNL1        0.0000
     38 H           8.9772   10.1795   -0.2228 H       1  UNL1        0.0000
     39 H          10.1378    8.8675   -0.0048 H       1  UNL1        0.0000
     40 C          10.4004   12.3325    2.2447 C.3     1  UNL1        0.0000
     41 H          10.7517   12.3534    1.2161 H       1  UNL1        0.0000
     42 H          11.1988   12.6810    2.8951 H       1  UNL1        0.0000
     43 H           9.5726   13.0363    2.3338 H       1  UNL1        0.0000
     44 C          10.1354   13.4870    5.4259 C.3     1  UNL1        0.0000
     45 H          10.0190   13.9625    6.3950 H       1  UNL1        0.0000
     46 H           9.4839   14.0053    4.7311 H       1  UNL1        0.0000
     47 H          11.1572   13.6474    5.1077 H       1  UNL1        0.0000
     48 C           7.8323   11.7573    6.2031 C.3     1  UNL1        0.0000
     49 H           7.3143   10.8047    6.2052 H       1  UNL1        0.0000
     50 H           7.2671   12.4272    5.5615 H       1  UNL1        0.0000
     51 H           7.7945   12.1682    7.2076 H       1  UNL1        0.0000
@<TRIPOS>BOND
     1    38    36    1
     2    37    36    1
     3    39    36    1
     4    36    27    1
     5    34    32    1
     6    41    40    1
     7    27    25    1
     8    27    28    2
     9    32    35    1
    10    32    25    1
    11    32    33    1
    12    40    43    1
    13    40    28    1
    14    40    42    1
    15    26    25    1
    16    25    24    1
    17    28    23    1
    18    24    23    2
    19    24    29    1
    20    23     1    1
    21    21    19    1
    22    46    44    1
    23    30    29    1
    24    22    19    1
    25    29    31    1
    26    47    44    1
    27    19    20    1
    28    19     6    1
    29    44     1    1
    30    44    45    1
    31     1    48    1
    32     1     2    1
    33    50    48    1
    34    17    15    1
    35     6     2    1
    36     6     5    1
    37    48    49    1
    38    48    51    1
    39     2     3    1
    40    15     5    1
    41    15    18    1
    42    15    16    1
    43     5     4    1
    44     3     4    2
    45     3     7    1
    46     4    11    1
    47    13    11    1
    48    10     7    1
    49     9     7    1
    50     7     8    1
    51    11    14    1
    52    11    12    1
