@<TRIPOS>MOLECULE
3,4,5,7,9,10,11,13
 74 75 0 0 0
SMALL
GASTEIGER

@<TRIPOS>ATOM
      1 SI         16.4039    2.9639   -0.0888 Si      1  UNL1        0.0000
      2 SI         17.0853    9.4903    2.5557 Si      1  UNL1        0.0000
      3 C          16.3510    5.8484    0.7883 C.3     1  UNL1        0.0000
      4 C          16.6505    4.4679    1.0411 C.2     1  UNL1        0.0000
      5 C          17.2165    4.4439    2.3165 C.2     1  UNL1        0.0000
      6 H          17.5405    3.5552    2.8310 H       1  UNL1        0.0000
      7 C          17.2739    5.7489    2.8949 C.3     1  UNL1        0.0000
      8 H          17.8610    5.9859    3.7734 H       1  UNL1        0.0000
      9 C          16.8432    6.6453    1.8806 C.3     1  UNL1        0.0000
     10 C          16.2551    7.9539    1.8205 C.3     1  UNL1        0.0000
     11 C          15.5362    7.9508    0.5636 C.2     1  UNL1        0.0000
     12 H          15.0178    8.8054    0.1632 H       1  UNL1        0.0000
     13 C          15.5933    6.7139   -0.0523 C.2     1  UNL1        0.0000
     14 H          15.1106    6.4612   -0.9802 H       1  UNL1        0.0000
     15 C          18.2041    2.4183   -0.5383 C.3     1  UNL1        0.0000
     16 H          18.7150    3.3083   -0.9263 H       1  UNL1        0.0000
     17 C          18.2601    1.3576   -1.6349 C.3     1  UNL1        0.0000
     18 H          19.2958    1.1636   -1.9142 H       1  UNL1        0.0000
     19 H          17.7300    1.6790   -2.5266 H       1  UNL1        0.0000
     20 H          17.8253    0.4220   -1.2968 H       1  UNL1        0.0000
     21 C          19.0027    1.9354    0.6710 C.3     1  UNL1        0.0000
     22 H          18.5261    1.0753    1.1349 H       1  UNL1        0.0000
     23 H          19.1008    2.7210    1.4151 H       1  UNL1        0.0000
     24 H          20.0057    1.6384    0.3661 H       1  UNL1        0.0000
     25 C          15.4694    3.6122   -1.6464 C.3     1  UNL1        0.0000
     26 H          14.6686    4.2725   -1.2966 H       1  UNL1        0.0000
     27 C          16.3808    4.4267   -2.5644 C.3     1  UNL1        0.0000
     28 H          17.1156    3.7846   -3.0429 H       1  UNL1        0.0000
     29 H          16.9203    5.1952   -2.0148 H       1  UNL1        0.0000
     30 H          15.8009    4.9110   -3.3498 H       1  UNL1        0.0000
     31 C          14.7790    2.5126   -2.4484 C.3     1  UNL1        0.0000
     32 H          14.2626    2.9430   -3.3058 H       1  UNL1        0.0000
     33 H          14.0422    1.9957   -1.8401 H       1  UNL1        0.0000
     34 H          15.4958    1.7856   -2.8219 H       1  UNL1        0.0000
     35 C          15.2989    1.6491    0.7994 C.3     1  UNL1        0.0000
     36 H          14.2566    1.9225    0.5984 H       1  UNL1        0.0000
     37 C          15.5056    0.2374    0.2520 C.3     1  UNL1        0.0000
     38 H          16.4918   -0.1370    0.5168 H       1  UNL1        0.0000
     39 H          15.4006    0.2092   -0.8284 H       1  UNL1        0.0000
     40 H          14.7682   -0.4397    0.6808 H       1  UNL1        0.0000
     41 C          15.4605    1.6138    2.3182 C.3     1  UNL1        0.0000
     42 H          14.7902    0.8713    2.7471 H       1  UNL1        0.0000
     43 H          15.2156    2.5724    2.7683 H       1  UNL1        0.0000
     44 H          16.4769    1.3485    2.5995 H       1  UNL1        0.0000
     45 C          15.9477   11.0412    2.7052 C.3     1  UNL1        0.0000
     46 H          15.4430   10.9972    3.6761 H       1  UNL1        0.0000
     47 C          14.8511   11.1480    1.6463 C.3     1  UNL1        0.0000
     48 H          14.1505   10.3216    1.7139 H       1  UNL1        0.0000
     49 H          15.2739   11.1773    0.6446 H       1  UNL1        0.0000
     50 H          14.2852   12.0659    1.7955 H       1  UNL1        0.0000
     51 C          16.7781   12.3253    2.6762 C.3     1  UNL1        0.0000
     52 H          17.2377   12.4639    1.7005 H       1  UNL1        0.0000
     53 H          17.5654   12.3157    3.4233 H       1  UNL1        0.0000
     54 H          16.1394   13.1856    2.8701 H       1  UNL1        0.0000
     55 C          18.5706    9.7977    1.3532 C.3     1  UNL1        0.0000
     56 H          19.0828   10.7014    1.6961 H       1  UNL1        0.0000
     57 C          18.1183   10.0456   -0.0838 C.3     1  UNL1        0.0000
     58 H          18.9753   10.2624   -0.7204 H       1  UNL1        0.0000
     59 H          17.4350   10.8888   -0.1416 H       1  UNL1        0.0000
     60 H          17.6152    9.1693   -0.4884 H       1  UNL1        0.0000
     61 C          19.5865    8.6569    1.3778 C.3     1  UNL1        0.0000
     62 H          19.1305    7.7226    1.0532 H       1  UNL1        0.0000
     63 H          19.9937    8.5126    2.3754 H       1  UNL1        0.0000
     64 H          20.4148    8.8725    0.7041 H       1  UNL1        0.0000
     65 C          17.8142    9.0312    4.2889 C.3     1  UNL1        0.0000
     66 H          18.4799    8.1707    4.1598 H       1  UNL1        0.0000
     67 C          16.7574    8.6454    5.3218 C.3     1  UNL1        0.0000
     68 H          17.2206    8.4716    6.2920 H       1  UNL1        0.0000
     69 H          16.2389    7.7288    5.0413 H       1  UNL1        0.0000
     70 H          16.0174    9.4330    5.4409 H       1  UNL1        0.0000
     71 C          18.6684   10.1622    4.8585 C.3     1  UNL1        0.0000
     72 H          18.0436   11.0078    5.1334 H       1  UNL1        0.0000
     73 H          19.4143   10.4955    4.1414 H       1  UNL1        0.0000
     74 H          19.1882    9.8287    5.7561 H       1  UNL1        0.0000
@<TRIPOS>BOND
     1    30    27    1
     2    32    31    1
     3    28    27    1
     4    34    31    1
     5    27    29    1
     6    27    25    1
     7    19    17    1
     8    31    33    1
     9    31    25    1
    10    18    17    1
    11    25    26    1
    12    25     1    1
    13    17    20    1
    14    17    15    1
    15    14    13    1
    16    16    15    1
    17    39    37    1
    18    58    57    1
    19    15     1    1
    20    15    21    1
    21    60    57    1
    22    59    57    1
    23     1    35    1
    24     1     4    1
    25    57    55    1
    26    13    11    2
    27    13     3    1
    28    12    11    1
    29    37    38    1
    30    37    40    1
    31    37    35    1
    32    24    21    1
    33    11    10    1
    34    36    35    1
    35    49    47    1
    36    21    22    1
    37    21    23    1
    38    64    61    1
    39     3     4    1
    40     3     9    1
    41    35    41    1
    42     4     5    2
    43    62    61    1
    44    55    61    1
    45    55    56    1
    46    55     2    1
    47    61    63    1
    48    47    48    1
    49    47    50    1
    50    47    45    1
    51    52    51    1
    52    10     9    1
    53    10     2    1
    54     9     7    1
    55     5     6    1
    56     5     7    1
    57    41    44    1
    58    41    42    1
    59    41    43    1
    60     2    45    1
    61     2    65    1
    62    51    45    1
    63    51    54    1
    64    51    53    1
    65    45    46    1
    66     7     8    1
    67    73    71    1
    68    66    65    1
    69    65    71    1
    70    65    67    1
    71    71    72    1
    72    71    74    1
    73    69    67    1
    74    67    70    1
    75    67    68    1
