@<TRIPOS>MOLECULE
2,3,5,7,9,19,20,38
 42 45 0 0 0
SMALL
GASTEIGER

@<TRIPOS>ATOM
      1 SI          8.3439    3.2944    2.9409 Si      1  UNL1        0.0000
      2 C           6.7250    3.6005    3.8608 C.2     1  UNL1        0.0000
      3 C           5.8077    4.6308    3.5399 C.2     1  UNL1        0.0000
      4 H           6.0685    5.5856    3.1036 H       1  UNL1        0.0000
      5 C           4.5578    4.3174    4.0946 C.2     1  UNL1        0.0000
      6 H           3.7020    4.9775    4.1291 H       1  UNL1        0.0000
      7 C           4.6663    3.0666    4.7315 C.2     1  UNL1        0.0000
      8 H           3.9142    2.6243    5.3703 H       1  UNL1        0.0000
      9 C           5.9948    2.6100    4.5745 C.3     1  UNL1        0.0000
     10 H           6.4325    1.7518    5.0749 H       1  UNL1        0.0000
     11 C           9.5337    2.1815    3.9387 C.3     1  UNL1        0.0000
     12 H           9.0154    1.4025    4.4875 H       1  UNL1        0.0000
     13 H          10.0766    2.7796    4.6627 H       1  UNL1        0.0000
     14 H          10.2646    1.7093    3.2913 H       1  UNL1        0.0000
     15 C           9.3059    4.8982    2.5436 C.3     1  UNL1        0.0000
     16 H          10.0252    4.7325    1.7485 H       1  UNL1        0.0000
     17 H           9.8568    5.2241    3.4194 H       1  UNL1        0.0000
     18 H           8.6601    5.7149    2.2440 H       1  UNL1        0.0000
     19 C           7.5142    2.4804    1.4498 C.2     1  UNL1        0.0000
     20 C           6.8000    3.1692    0.4201 C.2     1  UNL1        0.0000
     21 C           6.1292    2.2373   -0.3914 C.2     1  UNL1        0.0000
     22 H           5.6145    2.4786   -1.3106 H       1  UNL1        0.0000
     23 C           6.4111    0.9387    0.0934 C.2     1  UNL1        0.0000
     24 C           6.1157   -0.3579   -0.4259 C.3     1  UNL1        0.0000
     25 C           5.3794   -0.5688   -1.6031 C.2     1  UNL1        0.0000
     26 H           5.0250    0.2852   -2.1610 H       1  UNL1        0.0000
     27 C           5.1187   -1.8378   -2.0558 C.2     1  UNL1        0.0000
     28 H           4.5491   -1.9833   -2.9625 H       1  UNL1        0.0000
     29 C           5.5911   -2.9474   -1.3513 C.2     1  UNL1        0.0000
     30 H           5.3754   -3.9425   -1.7123 H       1  UNL1        0.0000
     31 C           6.3372   -2.7702   -0.2139 C.2     1  UNL1        0.0000
     32 H           6.7189   -3.6261    0.3252 H       1  UNL1        0.0000
     33 C           6.6255   -1.4851    0.2724 C.2     1  UNL1        0.0000
     34 C           7.4372   -1.3020    1.4287 C.2     1  UNL1        0.0000
     35 H           7.8240   -2.1866    1.9147 H       1  UNL1        0.0000
     36 C           7.7514   -0.0654    1.9040 C.2     1  UNL1        0.0000
     37 H           8.4110    0.0389    2.7540 H       1  UNL1        0.0000
     38 C           7.2446    1.0878    1.2550 C.2     1  UNL1        0.0000
     39 C           6.9099    4.6337    0.1002 C.3     1  UNL1        0.0000
     40 H           6.3021    4.8720   -0.7717 H       1  UNL1        0.0000
     41 H           7.9447    4.8879   -0.1326 H       1  UNL1        0.0000
     42 H           6.5872    5.2585    0.9339 H       1  UNL1        0.0000
@<TRIPOS>BOND
     1    28    27    1
     2    26    25    1
     3    27    25    2
     4    27    29    1
     5    30    29    1
     6    25    24    1
     7    29    31    2
     8    22    21    1
     9    40    39    1
    10    24    23    1
    11    24    33    1
    12    21    23    2
    13    21    20    1
    14    31    33    1
    15    31    32    1
    16    41    39    1
    17    23    38    1
    18    39    20    1
    19    39    42    1
    20    33    34    2
    21    20    19    2
    22    38    19    1
    23    38    36    2
    24    34    36    1
    25    34    35    1
    26    19     1    1
    27    16    15    1
    28    36    37    1
    29    18    15    1
    30    15     1    1
    31    15    17    1
    32     1     2    1
    33     1    11    1
    34     4     3    1
    35    14    11    1
    36     3     2    2
    37     3     5    1
    38     2     9    1
    39    11    12    1
    40    11    13    1
    41     5     6    1
    42     5     7    2
    43     9     7    1
    44     9    10    1
    45     7     8    1
