@<TRIPOS>MOLECULE
8,9,23,30,31,32,47,48
 57 62 0 0 0
SMALL
GASTEIGER

@<TRIPOS>ATOM
      1 SI         -0.2212    7.7653    0.8873 Si      1  UNL1        0.0000
      2 C          -1.4240    8.0251    4.2212 C.3     1  UNL1        0.0000
      3 H          -1.7013    7.8025    5.2493 H       1  UNL1        0.0000
      4 H          -2.2603    7.7808    3.5705 H       1  UNL1        0.0000
      5 H          -1.2411    9.0983    4.1498 H       1  UNL1        0.0000
      6 C          -0.2120    7.2376    3.8371 C.2     1  UNL1        0.0000
      7 C           0.1860    6.9268    2.5228 C.3     1  UNL1        0.0000
      8 C           1.3471    6.0889    2.6405 C.3     1  UNL1        0.0000
      9 C           1.9988    5.2301    1.7024 C.2     1  UNL1        0.0000
     10 H           1.6202    5.1656    0.6863 H       1  UNL1        0.0000
     11 C           2.9568    4.3539    2.1333 C.2     1  UNL1        0.0000
     12 H           3.3977    3.6399    1.4498 H       1  UNL1        0.0000
     13 C           3.3784    4.3031    3.4970 C.ar    1  UNL1        0.0000
     14 C           4.3956    3.4268    3.9071 C.ar    1  UNL1        0.0000
     15 H           4.8880    2.8179    3.1622 H       1  UNL1        0.0000
     16 C           4.7691    3.3407    5.2260 C.ar    1  UNL1        0.0000
     17 H           5.5553    2.6634    5.5249 H       1  UNL1        0.0000
     18 C           4.1294    4.1253    6.1877 C.ar    1  UNL1        0.0000
     19 H           4.4261    4.0491    7.2235 H       1  UNL1        0.0000
     20 C           3.1269    4.9905    5.8202 C.ar    1  UNL1        0.0000
     21 H           2.6348    5.6012    6.5629 H       1  UNL1        0.0000
     22 C           2.7338    5.1095    4.4766 C.ar    1  UNL1        0.0000
     23 C           1.6758    5.9752    4.0513 C.3     1  UNL1        0.0000
     24 C           0.6812    6.6700    4.7556 C.2     1  UNL1        0.0000
     25 H           0.5945    6.7496    5.8254 H       1  UNL1        0.0000
     26 C           2.5069    7.1872   -1.3161 C.3     1  UNL1        0.0000
     27 H           2.2122    6.1656   -1.0827 H       1  UNL1        0.0000
     28 H           3.4723    7.1558   -1.8171 H       1  UNL1        0.0000
     29 H           1.7723    7.5864   -2.0159 H       1  UNL1        0.0000
     30 C           2.5871    8.0835   -0.1110 C.2     1  UNL1        0.0000
     31 C           1.4786    8.5723    0.6354 C.3     1  UNL1        0.0000
     32 C           1.9700    9.6643    1.4301 C.3     1  UNL1        0.0000
     33 C           1.2993   10.6852    2.1541 C.2     1  UNL1        0.0000
     34 H           0.2248   10.6493    2.2606 H       1  UNL1        0.0000
     35 C           1.9993   11.7484    2.6355 C.2     1  UNL1        0.0000
     36 H           1.4868   12.5464    3.1519 H       1  UNL1        0.0000
     37 C           3.4165   11.8436    2.5165 C.ar    1  UNL1        0.0000
     38 C           4.1287   12.9052    3.0960 C.ar    1  UNL1        0.0000
     39 H           3.5811   13.6558    3.6470 H       1  UNL1        0.0000
     40 C           5.4938   12.9859    2.9828 C.ar    1  UNL1        0.0000
     41 H           6.0297   13.8041    3.4409 H       1  UNL1        0.0000
     42 C           6.1999   12.0109    2.2741 C.ar    1  UNL1        0.0000
     43 H           7.2747   12.0835    2.1910 H       1  UNL1        0.0000
     44 C           5.5325   10.9642    1.6856 C.ar    1  UNL1        0.0000
     45 H           6.0765   10.2097    1.1317 H       1  UNL1        0.0000
     46 C           4.1366   10.8538    1.7991 C.ar    1  UNL1        0.0000
     47 C           3.3892    9.7920    1.1982 C.3     1  UNL1        0.0000
     48 C           3.7494    8.8057    0.2389 C.2     1  UNL1        0.0000
     49 H           4.6930    8.7553   -0.2890 H       1  UNL1        0.0000
     50 C          -1.6382    9.0451    0.9182 C.3     1  UNL1        0.0000
     51 H          -1.6542    9.6563    1.8113 H       1  UNL1        0.0000
     52 H          -2.5952    8.5384    0.8555 H       1  UNL1        0.0000
     53 H          -1.5640    9.7108    0.0642 H       1  UNL1        0.0000
     54 C          -0.7436    6.5572   -0.5041 C.3     1  UNL1        0.0000
     55 H          -1.7389    6.1796   -0.2930 H       1  UNL1        0.0000
     56 H          -0.0949    5.6966   -0.6152 H       1  UNL1        0.0000
     57 H          -0.7868    7.0658   -1.4618 H       1  UNL1        0.0000
@<TRIPOS>BOND
     1    29    26    1
     2    28    26    1
     3    57    54    1
     4    26    27    1
     5    26    30    1
     6    56    54    1
     7    54    55    1
     8    54     1    1
     9    49    48    1
    10    30    48    2
    11    30    31    1
    12    53    50    1
    13    48    47    1
    14    31     1    1
    15    31    32    1
    16    10     9    1
    17    52    50    1
    18     1    50    1
    19     1     7    1
    20    50    51    1
    21    45    44    1
    22    47    32    1
    23    47    46    1
    24    32    33    1
    25    12    11    1
    26    44    46   ar
    27    44    42   ar
    28     9    11    2
    29     9     8    1
    30    46    37   ar
    31    11    13    1
    32    33    34    1
    33    33    35    2
    34    43    42    1
    35    42    40   ar
    36    37    35    1
    37    37    38   ar
    38     7     8    1
    39     7     6    1
    40    35    36    1
    41     8    23    1
    42    40    38   ar
    43    40    41    1
    44    38    39    1
    45    15    14    1
    46    13    14   ar
    47    13    22   ar
    48     4     2    1
    49     6     2    1
    50     6    24    2
    51    14    16   ar
    52    23    22    1
    53    23    24    1
    54     5     2    1
    55     2     3    1
    56    22    20   ar
    57    24    25    1
    58    16    17    1
    59    16    18   ar
    60    20    18   ar
    61    20    21    1
    62    18    19    1
