@<TRIPOS>MOLECULE
8,9,11,39,40,41,43
 65 70 0 0 0
SMALL
GASTEIGER

@<TRIPOS>ATOM
      1 SI          2.8664   11.2661    5.7036 Si      1  UNL1        0.0000
      2 C           4.5305   10.4900    6.2082 C.3     1  UNL1        0.0000
      3 H           5.3058   11.2469    6.1483 H       1  UNL1        0.0000
      4 H           4.8505    9.6523    5.6012 H       1  UNL1        0.0000
      5 H           4.4870   10.1593    7.2408 H       1  UNL1        0.0000
      6 C           2.5800   11.3721    3.8165 C.3     1  UNL1        0.0000
      7 C           1.4851   12.1436    3.2932 C.ar    1  UNL1        0.0000
      8 C           0.9770   11.4690    2.1347 C.ar    1  UNL1        0.0000
      9 C           1.8447   10.3657    1.8427 C.3     1  UNL1        0.0000
     10 H           1.9055    9.8383    0.8971 H       1  UNL1        0.0000
     11 C           2.8186   10.3252    2.8853 C.3     1  UNL1        0.0000
     12 C           3.9417    9.3279    2.9244 C.3     1  UNL1        0.0000
     13 H           3.7712    8.5601    3.6880 H       1  UNL1        0.0000
     14 H           4.8846    9.8272    3.1430 H       1  UNL1        0.0000
     15 H           4.0365    8.8329    1.9578 H       1  UNL1        0.0000
     16 C           0.9103   13.3819    3.6466 C.ar    1  UNL1        0.0000
     17 H           1.3805   14.0035    4.3932 H       1  UNL1        0.0000
     18 C          -0.2270   13.8055    2.9992 C.ar    1  UNL1        0.0000
     19 H          -0.6532   14.7685    3.2306 H       1  UNL1        0.0000
     20 C          -0.9251   12.9404    2.1336 C.ar    1  UNL1        0.0000
     21 H          -1.9278   13.1915    1.8220 H       1  UNL1        0.0000
     22 C          -0.3476   11.7650    1.7122 C.ar    1  UNL1        0.0000
     23 C          -1.0983   10.5620    1.2678 C.ar    1  UNL1        0.0000
     24 C          -1.1228   10.0162   -0.0065 C.ar    1  UNL1        0.0000
     25 H          -0.6644   10.5488   -0.8260 H       1  UNL1        0.0000
     26 C          -1.7546    8.7992   -0.2221 C.ar    1  UNL1        0.0000
     27 H          -1.7847    8.3858   -1.2182 H       1  UNL1        0.0000
     28 C          -2.3467    8.1123    0.8265 C.ar    1  UNL1        0.0000
     29 H          -2.8341    7.1676    0.6444 H       1  UNL1        0.0000
     30 C          -2.3370    8.6472    2.1071 C.ar    1  UNL1        0.0000
     31 H          -2.8398    8.1314    2.9167 H       1  UNL1        0.0000
     32 C          -1.7015    9.8649    2.3357 C.ar    1  UNL1        0.0000
     33 H          -1.8242   10.3837    3.3013 H       1  UNL1        0.0000
     34 C           2.7679   12.9256    6.6318 C.3     1  UNL1        0.0000
     35 H           3.0467   12.7719    7.6693 H       1  UNL1        0.0000
     36 H           1.7930   13.3962    6.6262 H       1  UNL1        0.0000
     37 H           3.4799   13.6274    6.2098 H       1  UNL1        0.0000
     38 C           1.3277   10.1461    5.9526 C.3     1  UNL1        0.0000
     39 C           1.3202    8.7085    5.8127 C.ar    1  UNL1        0.0000
     40 C          -0.0522    8.2666    5.6520 C.ar    1  UNL1        0.0000
     41 C          -0.8725    9.4402    5.6419 C.2     1  UNL1        0.0000
     42 H          -1.9557    9.4485    5.7061 H       1  UNL1        0.0000
     43 C          -0.0394   10.5609    5.8756 C.2     1  UNL1        0.0000
     44 C          -0.5969   11.9215    6.1845 C.3     1  UNL1        0.0000
     45 H          -1.6833   11.9167    6.0857 H       1  UNL1        0.0000
     46 H          -0.1960   12.7029    5.5392 H       1  UNL1        0.0000
     47 H          -0.3606   12.1838    7.2162 H       1  UNL1        0.0000
     48 C           2.3449    7.7413    5.8631 C.ar    1  UNL1        0.0000
     49 H           3.3660    8.0332    6.0605 H       1  UNL1        0.0000
     50 C           2.0124    6.4100    5.7643 C.ar    1  UNL1        0.0000
     51 H           2.7870    5.6613    5.8307 H       1  UNL1        0.0000
     52 C           0.6840    5.9882    5.6097 C.ar    1  UNL1        0.0000
     53 H           0.4719    4.9310    5.5667 H       1  UNL1        0.0000
     54 C          -0.3628    6.8876    5.5625 C.ar    1  UNL1        0.0000
     55 C          -1.7602    6.4387    5.4240 C.ar    1  UNL1        0.0000
     56 C          -2.7481    6.9066    6.2881 C.ar    1  UNL1        0.0000
     57 H          -2.4761    7.5680    7.0975 H       1  UNL1        0.0000
     58 C          -4.0589    6.4891    6.1460 C.ar    1  UNL1        0.0000
     59 H          -4.8132    6.8497    6.8289 H       1  UNL1        0.0000
     60 C          -4.4030    5.6039    5.1375 C.ar    1  UNL1        0.0000
     61 H          -5.4265    5.2811    5.0267 H       1  UNL1        0.0000
     62 C          -3.4256    5.1225    4.2822 C.ar    1  UNL1        0.0000
     63 H          -3.6862    4.4210    3.5041 H       1  UNL1        0.0000
     64 C          -2.1121    5.5315    4.4266 C.ar    1  UNL1        0.0000
     65 H          -1.3519    5.1476    3.7611 H       1  UNL1        0.0000
@<TRIPOS>BOND
     1    27    26    1
     2    25    24    1
     3    26    24   ar
     4    26    28   ar
     5    24    23   ar
     6    29    28    1
     7    28    30   ar
     8    10     9    1
     9    23    22    1
    10    23    32   ar
    11    22    20   ar
    12    22     8   ar
    13    21    20    1
    14     9     8    1
    15     9    11    1
    16    15    12    1
    17    30    32   ar
    18    30    31    1
    19    20    18   ar
    20     8     7   ar
    21    32    33    1
    22    11    12    1
    23    11     6    1
    24    12    14    1
    25    12    13    1
    26    18    19    1
    27    18    16   ar
    28     7    16   ar
    29     7     6    1
    30    63    62    1
    31    16    17    1
    32    65    64    1
    33     6     1    1
    34    62    64   ar
    35    62    60   ar
    36    64    55   ar
    37    61    60    1
    38    60    58   ar
    39    55    54    1
    40    55    56   ar
    41    46    44    1
    42    54    52   ar
    43    54    40   ar
    44    53    52    1
    45     4     2    1
    46    52    50   ar
    47    41    40    1
    48    41    42    1
    49    41    43    2
    50    40    39   ar
    51     1    38    1
    52     1     2    1
    53     1    34    1
    54    50    51    1
    55    50    48   ar
    56    39    48   ar
    57    39    38    1
    58    48    49    1
    59    43    38    1
    60    43    44    1
    61    45    44    1
    62    58    56   ar
    63    58    59    1
    64     3     2    1
    65    44    47    1
    66     2     5    1
    67    37    34    1
    68    56    57    1
    69    36    34    1
    70    34    35    1
