@<TRIPOS>MOLECULE
2,3,4,5,6,8,13
 51 52 0 0 0
SMALL
GASTEIGER

@<TRIPOS>ATOM
      1 SI          3.1517    2.8388   10.5841 Si      1  UNL1        0.0000
      2 C           3.2218    3.7703    8.9402 C.3     1  UNL1        0.0000
      3 C           2.0861    4.3956    8.3489 C.2     1  UNL1        0.0000
      4 C           2.3322    4.5647    6.9656 C.2     1  UNL1        0.0000
      5 C           3.6021    3.9997    6.6749 C.2     1  UNL1        0.0000
      6 C           4.1277    3.4772    7.8820 C.2     1  UNL1        0.0000
      7 C           2.0359    1.5297    9.8203 C.3     1  UNL1        0.0000
      8 C           0.6668    1.7128    9.4991 C.2     1  UNL1        0.0000
      9 H           0.0288    2.4534    9.9619 H       1  UNL1        0.0000
     10 C           0.2120    0.6164    8.7358 C.2     1  UNL1        0.0000
     11 C           1.3328   -0.1967    8.4830 C.2     1  UNL1        0.0000
     12 H           1.3274   -1.1518    7.9783 H       1  UNL1        0.0000
     13 C           2.4588    0.3786    9.1079 C.2     1  UNL1        0.0000
     14 H           3.4293   -0.0969    9.2083 H       1  UNL1        0.0000
     15 C           0.9234    5.0282    9.0593 C.3     1  UNL1        0.0000
     16 H           0.9755    6.1154    8.9591 H       1  UNL1        0.0000
     17 H          -0.0285    4.7014    8.6321 H       1  UNL1        0.0000
     18 H           0.9329    4.7903   10.1182 H       1  UNL1        0.0000
     19 C           1.5365    5.4626    6.0624 C.3     1  UNL1        0.0000
     20 H           0.5051    5.5440    6.4002 H       1  UNL1        0.0000
     21 H           1.5322    5.1113    5.0321 H       1  UNL1        0.0000
     22 H           1.9725    6.4653    6.0725 H       1  UNL1        0.0000
     23 C           4.3611    4.1718    5.3910 C.3     1  UNL1        0.0000
     24 H           3.7568    4.6936    4.6530 H       1  UNL1        0.0000
     25 H           5.2574    4.7697    5.5717 H       1  UNL1        0.0000
     26 H           4.6756    3.2197    4.9629 H       1  UNL1        0.0000
     27 C           5.5102    2.9125    8.0489 C.3     1  UNL1        0.0000
     28 H           5.4956    1.8292    8.1960 H       1  UNL1        0.0000
     29 H           6.1155    3.1240    7.1686 H       1  UNL1        0.0000
     30 H           5.9962    3.3636    8.9132 H       1  UNL1        0.0000
     31 C           4.7916    2.1058   11.2317 C.3     1  UNL1        0.0000
     32 H           5.2475    1.4096   10.5375 H       1  UNL1        0.0000
     33 H           5.5118    2.8884   11.4450 H       1  UNL1        0.0000
     34 H           4.6071    1.5719   12.1584 H       1  UNL1        0.0000
     35 C           2.3829    3.7922   12.0539 C.3     1  UNL1        0.0000
     36 H           1.3037    3.6897   12.0944 H       1  UNL1        0.0000
     37 H           2.7773    3.4064   12.9877 H       1  UNL1        0.0000
     38 H           2.6192    4.8505   12.0122 H       1  UNL1        0.0000
     39 C          -1.2408    0.2556    8.5067 C.3     1  UNL1        0.0000
     40 C          -1.7381   -0.4246    9.7957 C.3     1  UNL1        0.0000
     41 H          -1.1516   -1.3170   10.0021 H       1  UNL1        0.0000
     42 H          -2.7836   -0.7103    9.6963 H       1  UNL1        0.0000
     43 H          -1.6408    0.2488   10.6443 H       1  UNL1        0.0000
     44 C          -2.0963    1.5025    8.2503 C.3     1  UNL1        0.0000
     45 H          -2.0930    2.1601    9.1163 H       1  UNL1        0.0000
     46 H          -1.7254    2.0576    7.3917 H       1  UNL1        0.0000
     47 H          -3.1271    1.2119    8.0553 H       1  UNL1        0.0000
     48 C          -1.4157   -0.7254    7.3424 C.3     1  UNL1        0.0000
     49 H          -1.0314   -0.3110    6.4131 H       1  UNL1        0.0000
     50 H          -0.8976   -1.6594    7.5458 H       1  UNL1        0.0000
     51 H          -2.4723   -0.9513    7.2065 H       1  UNL1        0.0000
@<TRIPOS>BOND
     1    24    23    1
     2    26    23    1
     3    21    19    1
     4    23    25    1
     5    23     5    1
     6    19    22    1
     7    19    20    1
     8    19     4    1
     9    49    48    1
    10     5     4    1
    11     5     6    2
    12     4     3    2
    13    29    27    1
    14    51    48    1
    15    48    50    1
    16    48    39    1
    17    46    44    1
    18     6    27    1
    19     6     2    1
    20    12    11    1
    21    27    28    1
    22    27    30    1
    23    47    44    1
    24    44    39    1
    25    44    45    1
    26     3     2    1
    27     3    15    1
    28    11    10    1
    29    11    13    2
    30    39    10    1
    31    39    40    1
    32    17    15    1
    33    10     8    2
    34     2     1    1
    35    16    15    1
    36    15    18    1
    37    13    14    1
    38    13     7    1
    39     8     7    1
    40     8     9    1
    41    42    40    1
    42    40    41    1
    43    40    43    1
    44     7     1    1
    45    32    31    1
    46     1    31    1
    47     1    35    1
    48    31    33    1
    49    31    34    1
    50    38    35    1
    51    35    36    1
    52    35    37    1
