@<TRIPOS>MOLECULE
2,3,4,31,32,34,35,37
 42 43 0 0 0
SMALL
GASTEIGER

@<TRIPOS>ATOM
      1 SI          4.2301   15.4847    6.7803 Si      1  UNL1        0.0000
      2 C           3.3055   13.9437    6.2145 C.2     1  UNL1        0.0000
      3 C           3.6913   12.5948    6.7420 C.3     1  UNL1        0.0000
      4 C           2.6281   11.6997    6.2271 C.2     1  UNL1        0.0000
      5 C           1.7038   12.4355    5.5522 C.2     1  UNL1        0.0000
      6 C           2.1170   13.8195    5.5543 C.2     1  UNL1        0.0000
      7 C           5.1074   12.1229    6.4134 C.3     1  UNL1        0.0000
      8 H           5.3168   11.1676    6.8965 H       1  UNL1        0.0000
      9 H           5.8551   12.8475    6.7318 H       1  UNL1        0.0000
     10 H           5.2046   11.9954    5.3333 H       1  UNL1        0.0000
     11 C           2.6802   10.2128    6.3705 C.3     1  UNL1        0.0000
     12 H           1.6796    9.7969    6.4687 H       1  UNL1        0.0000
     13 H           3.2596    9.9543    7.2544 H       1  UNL1        0.0000
     14 H           3.1497    9.7644    5.4926 H       1  UNL1        0.0000
     15 C           0.4492   11.9588    4.8987 C.3     1  UNL1        0.0000
     16 H           0.5048   12.0938    3.8178 H       1  UNL1        0.0000
     17 H          -0.4057   12.5269    5.2645 H       1  UNL1        0.0000
     18 H           0.2803   10.9056    5.1045 H       1  UNL1        0.0000
     19 C           1.3073   14.8945    4.9131 C.3     1  UNL1        0.0000
     20 H           0.4215   15.1086    5.5136 H       1  UNL1        0.0000
     21 H           0.9686   14.5733    3.9291 H       1  UNL1        0.0000
     22 H           1.8841   15.8072    4.8043 H       1  UNL1        0.0000
     23 C           5.9205   15.7502    5.9288 C.3     1  UNL1        0.0000
     24 H           6.6277   14.9499    6.1184 H       1  UNL1        0.0000
     25 H           6.3726   16.6773    6.2668 H       1  UNL1        0.0000
     26 H           5.7887   15.8209    4.8543 H       1  UNL1        0.0000
     27 C           3.2778   17.1350    6.6720 C.3     1  UNL1        0.0000
     28 H           2.2396   17.0351    6.9702 H       1  UNL1        0.0000
     29 H           3.2983   17.5232    5.6595 H       1  UNL1        0.0000
     30 H           3.7380   17.8806    7.3143 H       1  UNL1        0.0000
     31 C           4.4333   15.0868    8.6153 C.3     1  UNL1        0.0000
     32 C           3.4427   15.3191    9.5853 C.2     1  UNL1        0.0000
     33 H           2.5892   15.9750    9.4639 H       1  UNL1        0.0000
     34 C           3.7828   14.6547   10.7809 C.2     1  UNL1        0.0000
     35 C           5.0020   13.9702   10.5473 C.3     1  UNL1        0.0000
     36 H           5.6093   13.4860   11.3037 H       1  UNL1        0.0000
     37 C           5.3891   14.2153    9.2050 C.3     1  UNL1        0.0000
     38 H           6.3661   13.9797    8.7968 H       1  UNL1        0.0000
     39 C           3.0528   14.7414   12.0873 C.3     1  UNL1        0.0000
     40 H           3.2895   13.8856   12.7208 H       1  UNL1        0.0000
     41 H           1.9733   14.7730   11.9288 H       1  UNL1        0.0000
     42 H           3.3419   15.6504   12.6211 H       1  UNL1        0.0000
@<TRIPOS>BOND
     1    16    15    1
     2    21    19    1
     3    22    19    1
     4    26    23    1
     5    15    18    1
     6    15    17    1
     7    15     5    1
     8    19    20    1
     9    19     6    1
    10    10     7    1
    11    14    11    1
    12     5     6    1
    13     5     4    2
    14     6     2    2
    15    29    27    1
    16    23    24    1
    17    23    25    1
    18    23     1    1
    19     2     3    1
    20     2     1    1
    21     4    11    1
    22     4     3    1
    23    11    12    1
    24    11    13    1
    25     7     9    1
    26     7     3    1
    27     7     8    1
    28    27     1    1
    29    27    28    1
    30    27    30    1
    31     1    31    1
    32    31    37    1
    33    31    32    1
    34    38    37    1
    35    37    35    1
    36    33    32    1
    37    32    34    2
    38    35    34    1
    39    35    36    1
    40    34    39    1
    41    41    39    1
    42    39    42    1
    43    39    40    1
