@<TRIPOS>MOLECULE
2,3,4,5,6,31,36,49
 51 52 0 0 0
SMALL
GASTEIGER

@<TRIPOS>ATOM
      1 SI         -1.3523   11.3192   12.8395 Si      1  UNL1        0.0000
      2 C          -0.7242   11.0620   11.0765 C.3     1  UNL1        0.0000
      3 C          -0.0621   12.1087   10.3625 C.3     1  UNL1        0.0000
      4 C           0.7492   11.5234    9.3581 C.3     1  UNL1        0.0000
      5 C           0.6046   10.1063    9.4594 C.2     1  UNL1        0.0000
      6 C          -0.3097    9.8325   10.4991 C.2     1  UNL1        0.0000
      7 C          -0.3169   13.5754   10.5068 C.3     1  UNL1        0.0000
      8 H          -1.2273   13.8590    9.9742 H       1  UNL1        0.0000
      9 H          -0.4319   13.8513   11.5508 H       1  UNL1        0.0000
     10 H           0.5087   14.1514   10.0942 H       1  UNL1        0.0000
     11 C           1.4612   12.2409    8.2521 C.3     1  UNL1        0.0000
     12 H           0.7901   12.3894    7.4031 H       1  UNL1        0.0000
     13 H           1.8162   13.2158    8.5802 H       1  UNL1        0.0000
     14 H           2.3202   11.6668    7.9100 H       1  UNL1        0.0000
     15 C           1.1638    9.1011    8.5034 C.3     1  UNL1        0.0000
     16 H           0.5085    8.9991    7.6353 H       1  UNL1        0.0000
     17 H           2.1477    9.4038    8.1513 H       1  UNL1        0.0000
     18 H           1.2552    8.1261    8.9764 H       1  UNL1        0.0000
     19 C          -0.9055    8.4794   10.7418 C.3     1  UNL1        0.0000
     20 H          -1.4848    8.1780    9.8660 H       1  UNL1        0.0000
     21 H          -0.1376    7.7223   10.9009 H       1  UNL1        0.0000
     22 H          -1.5744    8.4887   11.5967 H       1  UNL1        0.0000
     23 C          -2.1428    9.8386   13.7647 C.3     1  UNL1        0.0000
     24 H          -3.0219    9.4724   13.2429 H       1  UNL1        0.0000
     25 H          -1.4653    9.0057   13.9169 H       1  UNL1        0.0000
     26 H          -2.4678   10.1683   14.7474 H       1  UNL1        0.0000
     27 C          -2.7216   12.6488   12.9027 C.3     1  UNL1        0.0000
     28 H          -2.3991   13.6331   12.5895 H       1  UNL1        0.0000
     29 H          -3.5421   12.3542   12.2554 H       1  UNL1        0.0000
     30 H          -3.1200   12.7315   13.9085 H       1  UNL1        0.0000
     31 C           0.3495   11.6676   13.6187 C.2     1  UNL1        0.0000
     32 C           0.7801   12.8310   14.3767 C.2     1  UNL1        0.0000
     33 C           2.0100   12.6293   14.8962 C.2     1  UNL1        0.0000
     34 C           2.4926   11.2485   14.5495 C.3     1  UNL1        0.0000
     35 H           3.4609   11.2763   14.0392 H       1  UNL1        0.0000
     36 C           1.3878   10.7256   13.6557 C.2     1  UNL1        0.0000
     37 C          -0.0584   14.0568   14.5346 C.3     1  UNL1        0.0000
     38 H           0.3019   14.6701   15.3561 H       1  UNL1        0.0000
     39 H          -0.0298   14.6605   13.6276 H       1  UNL1        0.0000
     40 H          -1.0918   13.7866   14.7338 H       1  UNL1        0.0000
     41 C           2.8612   13.5545   15.6903 C.3     1  UNL1        0.0000
     42 H           2.3959   14.5289   15.8060 H       1  UNL1        0.0000
     43 H           3.0597   13.1440   16.6810 H       1  UNL1        0.0000
     44 H           3.8193   13.6881   15.1884 H       1  UNL1        0.0000
     45 C           2.6221   10.3620   15.7951 C.3     1  UNL1        0.0000
     46 H           3.3910   10.7487   16.4589 H       1  UNL1        0.0000
     47 H           1.6755   10.3346   16.3308 H       1  UNL1        0.0000
     48 H           2.8912    9.3486   15.5088 H       1  UNL1        0.0000
     49 C           1.4491    9.4966   12.9670 C.3     1  UNL1        0.0000
     50 H           2.2950    8.8632   13.2139 H       1  UNL1        0.0000
     51 H           0.5334    8.9267   12.8778 H       1  UNL1        0.0000
@<TRIPOS>BOND
     1    12    11    1
     2    16    15    1
     3    14    11    1
     4    17    15    1
     5    11    13    1
     6    11     4    1
     7    15    18    1
     8    15     5    1
     9     4     5    1
    10     4     3    1
    11     5     6    2
    12    20    19    1
    13     8     7    1
    14    10     7    1
    15     3     7    1
    16     3     2    1
    17     6    19    1
    18     6     2    1
    19     7     9    1
    20    19    21    1
    21    19    22    1
    22     2     1    1
    23    29    27    1
    24    28    27    1
    25     1    27    1
    26     1    31    1
    27     1    23    1
    28    51    49    1
    29    27    30    1
    30    49    50    1
    31    49    36    1
    32    24    23    1
    33    31    36    2
    34    31    32    1
    35    39    37    1
    36    36    34    1
    37    23    25    1
    38    23    26    1
    39    35    34    1
    40    32    37    1
    41    32    33    2
    42    37    40    1
    43    37    38    1
    44    34    33    1
    45    34    45    1
    46    33    41    1
    47    44    41    1
    48    48    45    1
    49    41    42    1
    50    41    43    1
    51    45    47    1
    52    45    46    1
