@<TRIPOS>MOLECULE
2,3,4,5,6,31,36,49
 51 52 0 0 0
SMALL
GASTEIGER

@<TRIPOS>ATOM
      1 SI          2.6942    4.4858    1.2442 Si      1  UNL1        0.0000
      2 C           4.3251    5.3263    0.7912 C.3     1  UNL1        0.0000
      3 C           4.3472    6.6626    0.2799 C.3     1  UNL1        0.0000
      4 C           5.6166    7.2268    0.5562 C.3     1  UNL1        0.0000
      5 C           6.3773    6.2484    1.2671 C.2     1  UNL1        0.0000
      6 C           5.5885    5.0831    1.3878 C.2     1  UNL1        0.0000
      7 C           3.2966    7.2982   -0.5744 C.3     1  UNL1        0.0000
      8 H           3.3700    6.9367   -1.6020 H       1  UNL1        0.0000
      9 H           2.2994    7.0723   -0.2080 H       1  UNL1        0.0000
     10 H           3.4158    8.3795   -0.5879 H       1  UNL1        0.0000
     11 C           6.1533    8.5245    0.0340 C.3     1  UNL1        0.0000
     12 H           6.5983    8.3805   -0.9531 H       1  UNL1        0.0000
     13 H           5.3653    9.2700   -0.0530 H       1  UNL1        0.0000
     14 H           6.9196    8.9201    0.6978 H       1  UNL1        0.0000
     15 C           7.8249    6.3600    1.6267 C.3     1  UNL1        0.0000
     16 H           8.4489    6.0765    0.7761 H       1  UNL1        0.0000
     17 H           8.0793    7.3795    1.9088 H       1  UNL1        0.0000
     18 H           8.0678    5.7047    2.4598 H       1  UNL1        0.0000
     19 C           6.1273    3.7641    1.8504 C.3     1  UNL1        0.0000
     20 H           6.8962    3.4234    1.1532 H       1  UNL1        0.0000
     21 H           6.5894    3.8401    2.8344 H       1  UNL1        0.0000
     22 H           5.3489    3.0083    1.8839 H       1  UNL1        0.0000
     23 C           1.5127    4.3874   -0.2546 C.3     1  UNL1        0.0000
     24 H           0.9605    5.3039   -0.4248 H       1  UNL1        0.0000
     25 H           2.0634    4.1665   -1.1631 H       1  UNL1        0.0000
     26 H           0.7915    3.5897   -0.1113 H       1  UNL1        0.0000
     27 C           2.7461    2.7052    1.9447 C.3     1  UNL1        0.0000
     28 H           3.2611    2.6315    2.8962 H       1  UNL1        0.0000
     29 H           1.7303    2.3553    2.1033 H       1  UNL1        0.0000
     30 H           3.2180    2.0201    1.2470 H       1  UNL1        0.0000
     31 C           2.2292    5.7348    2.5898 C.2     1  UNL1        0.0000
     32 C           0.9370    6.5119    2.6532 C.3     1  UNL1        0.0000
     33 H           0.8645    7.2368    1.8349 H       1  UNL1        0.0000
     34 C           1.0155    7.2261    3.9783 C.2     1  UNL1        0.0000
     35 C           2.1345    6.8712    4.6287 C.2     1  UNL1        0.0000
     36 C           2.9064    5.9364    3.7961 C.2     1  UNL1        0.0000
     37 C          -0.2835    5.5857    2.5956 C.3     1  UNL1        0.0000
     38 H          -1.1981    6.1627    2.7085 H       1  UNL1        0.0000
     39 H          -0.3218    5.0549    1.6496 H       1  UNL1        0.0000
     40 H          -0.2279    4.8585    3.4024 H       1  UNL1        0.0000
     41 C          -0.0578    8.1662    4.4061 C.3     1  UNL1        0.0000
     42 H           0.3104    8.8639    5.1533 H       1  UNL1        0.0000
     43 H          -0.4210    8.7343    3.5515 H       1  UNL1        0.0000
     44 H          -0.9015    7.6205    4.8330 H       1  UNL1        0.0000
     45 C           2.6094    7.3146    5.9714 C.3     1  UNL1        0.0000
     46 H           1.8841    7.9686    6.4463 H       1  UNL1        0.0000
     47 H           2.7747    6.4534    6.6181 H       1  UNL1        0.0000
     48 H           3.5534    7.8506    5.8715 H       1  UNL1        0.0000
     49 C           4.2074    5.4511    4.0883 C.3     1  UNL1        0.0000
     50 H           4.4299    4.4447    3.7552 H       1  UNL1        0.0000
     51 H           4.5617    5.6237    5.0979 H       1  UNL1        0.0000
@<TRIPOS>BOND
     1     8     7    1
     2    25    23    1
     3    12    11    1
     4    10     7    1
     5     7     9    1
     6     7     3    1
     7    24    23    1
     8    23    26    1
     9    23     1    1
    10    13    11    1
    11    11     4    1
    12    11    14    1
    13     3     4    1
    14     3     2    1
    15     4     5    1
    16    16    15    1
    17     2     1    1
    18     2     6    1
    19    20    19    1
    20     1    27    1
    21     1    31    1
    22    30    27    1
    23     5     6    2
    24     5    15    1
    25     6    19    1
    26    15    17    1
    27    15    18    1
    28    39    37    1
    29    33    32    1
    30    19    22    1
    31    19    21    1
    32    27    29    1
    33    27    28    1
    34    31    32    1
    35    31    36    2
    36    37    32    1
    37    37    38    1
    38    37    40    1
    39    32    34    1
    40    43    41    1
    41    50    49    1
    42    36    49    1
    43    36    35    1
    44    34    41    1
    45    34    35    2
    46    49    51    1
    47    41    44    1
    48    41    42    1
    49    35    45    1
    50    48    45    1
    51    45    46    1
    52    45    47    1
