@<TRIPOS>MOLECULE
3,4,6,8,9,11,13,15
 76 76 0 0 0
SMALL
GASTEIGER

@<TRIPOS>ATOM
      1 SI          8.2655    5.5004    4.2100 Si      1  UNL1        0.0000
      2 SI          8.4532   11.7952    7.1305 Si      1  UNL1        0.0000
      3 C           8.9940    7.2252    4.5582 C.3     1  UNL1        0.0000
      4 C           8.3012    7.8808    5.6188 C.2     1  UNL1        0.0000
      5 H           7.4857    7.2783    6.0070 H       1  UNL1        0.0000
      6 C           8.3562    9.1169    6.2633 C.2     1  UNL1        0.0000
      7 H           7.5967    9.1866    7.0356 H       1  UNL1        0.0000
      8 C           9.0121   10.3436    6.0425 C.3     1  UNL1        0.0000
      9 C          10.2003   10.6040    5.2765 C.3     1  UNL1        0.0000
     10 H          10.5229   11.6430    5.3445 H       1  UNL1        0.0000
     11 C          11.2670    9.7465    4.8809 C.2     1  UNL1        0.0000
     12 H          12.2316   10.2525    4.8351 H       1  UNL1        0.0000
     13 C          11.3122    8.4287    4.4268 C.2     1  UNL1        0.0000
     14 H          12.3135    8.1108    4.1426 H       1  UNL1        0.0000
     15 C          10.3174    7.4892    4.0732 C.3     1  UNL1        0.0000
     16 H          10.7191    6.6796    3.4699 H       1  UNL1        0.0000
     17 C           8.0546    4.5894    5.9063 C.3     1  UNL1        0.0000
     18 H           7.2481    5.1008    6.4412 H       1  UNL1        0.0000
     19 C           7.6207    3.1327    5.7618 C.3     1  UNL1        0.0000
     20 H           8.4058    2.5352    5.3065 H       1  UNL1        0.0000
     21 H           6.7264    3.0544    5.1485 H       1  UNL1        0.0000
     22 H           7.4017    2.7035    6.7391 H       1  UNL1        0.0000
     23 C           9.2952    4.6909    6.7922 C.3     1  UNL1        0.0000
     24 H           9.0936    4.2711    7.7771 H       1  UNL1        0.0000
     25 H           9.5911    5.7294    6.9178 H       1  UNL1        0.0000
     26 H          10.1299    4.1471    6.3602 H       1  UNL1        0.0000
     27 C           9.3455    4.5049    2.9428 C.3     1  UNL1        0.0000
     28 H           9.6752    5.1986    2.1624 H       1  UNL1        0.0000
     29 C           8.5602    3.4005    2.2372 C.3     1  UNL1        0.0000
     30 H           9.2070    2.8662    1.5414 H       1  UNL1        0.0000
     31 H           7.7250    3.8058    1.6738 H       1  UNL1        0.0000
     32 H           8.1709    2.6819    2.9521 H       1  UNL1        0.0000
     33 C          10.6012    3.8960    3.5662 C.3     1  UNL1        0.0000
     34 H          10.3356    3.0896    4.2437 H       1  UNL1        0.0000
     35 H          11.1715    4.6331    4.1251 H       1  UNL1        0.0000
     36 H          11.2467    3.4791    2.7927 H       1  UNL1        0.0000
     37 C           6.5140    5.7177    3.4159 C.3     1  UNL1        0.0000
     38 H           6.1322    4.7386    3.1118 H       1  UNL1        0.0000
     39 C           5.4735    6.3396    4.3442 C.3     1  UNL1        0.0000
     40 H           5.7290    7.3734    4.5659 H       1  UNL1        0.0000
     41 H           5.3901    5.7865    5.2759 H       1  UNL1        0.0000
     42 H           4.4951    6.3369    3.8650 H       1  UNL1        0.0000
     43 C           6.6437    6.5918    2.1714 C.3     1  UNL1        0.0000
     44 H           5.6631    6.8257    1.7592 H       1  UNL1        0.0000
     45 H           7.2222    6.0845    1.4022 H       1  UNL1        0.0000
     46 H           7.1431    7.5341    2.4381 H       1  UNL1        0.0000
     47 C           8.5657   13.3939    6.0461 C.3     1  UNL1        0.0000
     48 H           9.6259   13.5981    5.8592 H       1  UNL1        0.0000
     49 C           7.8976   13.1749    4.6911 C.3     1  UNL1        0.0000
     50 H           6.8250   13.0513    4.8089 H       1  UNL1        0.0000
     51 H           8.2888   12.2690    4.2103 H       1  UNL1        0.0000
     52 H           8.0641   14.0335    4.0400 H       1  UNL1        0.0000
     53 C           7.9980   14.6410    6.7165 C.3     1  UNL1        0.0000
     54 H           8.1928   15.5250    6.1091 H       1  UNL1        0.0000
     55 H           8.4483   14.7941    7.6939 H       1  UNL1        0.0000
     56 H           6.9221   14.5542    6.8396 H       1  UNL1        0.0000
     57 C           6.7107   11.5097    7.9149 C.3     1  UNL1        0.0000
     58 H           6.7126   10.5002    8.3384 H       1  UNL1        0.0000
     59 C           5.5765   11.5640    6.8937 C.3     1  UNL1        0.0000
     60 H           4.6412   11.2343    7.3455 H       1  UNL1        0.0000
     61 H           5.7843   10.9261    6.0390 H       1  UNL1        0.0000
     62 H           5.4301   12.5812    6.5391 H       1  UNL1        0.0000
     63 C           6.4048   12.4553    9.0753 C.3     1  UNL1        0.0000
     64 H           6.3797   13.4893    8.7453 H       1  UNL1        0.0000
     65 H           7.1491   12.3662    9.8615 H       1  UNL1        0.0000
     66 H           5.4315   12.2164    9.5038 H       1  UNL1        0.0000
     67 C           9.7042   11.9540    8.6022 C.3     1  UNL1        0.0000
     68 H           9.3776   12.7721    9.2511 H       1  UNL1        0.0000
     69 C          11.1298   12.2719    8.1583 C.3     1  UNL1        0.0000
     70 H          11.7808   12.3841    9.0249 H       1  UNL1        0.0000
     71 H          11.1672   13.1974    7.5891 H       1  UNL1        0.0000
     72 H          11.5238   11.4656    7.5452 H       1  UNL1        0.0000
     73 C           9.7137   10.6715    9.4323 C.3     1  UNL1        0.0000
     74 H          10.0239    9.8293    8.8177 H       1  UNL1        0.0000
     75 H           8.7267   10.4552    9.8313 H       1  UNL1        0.0000
     76 H          10.4070   10.7579   10.2683 H       1  UNL1        0.0000
@<TRIPOS>BOND
     1    45    43    1
     2    30    29    1
     3    31    29    1
     4    44    43    1
     5    28    27    1
     6    43    46    1
     7    43    37    1
     8    29    27    1
     9    29    32    1
    10    36    33    1
    11    27    33    1
    12    27     1    1
    13    38    37    1
    14    37     1    1
    15    37    39    1
    16    16    15    1
    17    33    35    1
    18    33    34    1
    19    42    39    1
    20    52    49    1
    21    15    13    1
    22    15     3    1
    23    14    13    1
    24     1     3    1
    25     1    17    1
    26    51    49    1
    27    39    40    1
    28    39    41    1
    29    13    11    2
    30     3     4    1
    31    49    50    1
    32    49    47    1
    33    12    11    1
    34    11     9    1
    35    21    19    1
    36     9    10    1
    37     9     8    1
    38    20    19    1
    39     4     5    1
    40     4     6    2
    41    19    17    1
    42    19    22    1
    43    48    47    1
    44    17    18    1
    45    17    23    1
    46    61    59    1
    47     8     6    1
    48     8     2    1
    49    47    53    1
    50    47     2    1
    51    54    53    1
    52     6     7    1
    53    26    23    1
    54    62    59    1
    55    53    56    1
    56    53    55    1
    57    23    25    1
    58    23    24    1
    59    59    60    1
    60    59    57    1
    61     2    57    1
    62     2    67    1
    63    72    69    1
    64    71    69    1
    65    57    58    1
    66    57    63    1
    67    69    67    1
    68    69    70    1
    69    67    68    1
    70    67    73    1
    71    64    63    1
    72    74    73    1
    73    63    66    1
    74    63    65    1
    75    73    75    1
    76    73    76    1
