@<TRIPOS>MOLECULE
3,4,5,7,45,46,47,49
 85 90 0 0 0
SMALL
GASTEIGER

@<TRIPOS>ATOM
      1 SI          9.9266    7.9231    3.3103 Si      1  UNL1        0.0000
      2 O           8.4938    7.3838    0.3592 O.3     1  UNL1        0.0000
      3 C           8.5193    6.6364    3.2743 C.3     1  UNL1        0.0000
      4 C           8.0991    5.9133    4.4371 C.2     1  UNL1        0.0000
      5 C           7.3181    4.8090    4.0605 C.2     1  UNL1        0.0000
      6 C           7.2059    4.8008    2.6503 C.ar    1  UNL1        0.0000
      7 C           7.9415    5.9376    2.1553 C.ar    1  UNL1        0.0000
      8 C           7.8244    6.2592    0.7817 C.ar    1  UNL1        0.0000
      9 C           7.0574    5.4612   -0.0390 C.ar    1  UNL1        0.0000
     10 C           6.3921    4.3311    0.4545 C.ar    1  UNL1        0.0000
     11 C           6.4556    3.9729    1.7819 C.ar    1  UNL1        0.0000
     12 C           5.7859    2.7669    2.2858 C.ar    1  UNL1        0.0000
     13 C           6.4601    1.9031    3.1474 C.ar    1  UNL1        0.0000
     14 C           5.8561    0.7506    3.6196 C.ar    1  UNL1        0.0000
     15 C           4.5555    0.4610    3.2233 C.ar    1  UNL1        0.0000
     16 C           3.8645    1.3007    2.3624 C.ar    1  UNL1        0.0000
     17 C           4.4893    2.4494    1.8980 C.ar    1  UNL1        0.0000
     18 C          10.1444    9.1801    1.8860 C.3     1  UNL1        0.0000
     19 C           8.2658    7.8499   -0.9453 C.3     1  UNL1        0.0000
     20 C           8.2850    6.3092    5.8744 C.3     1  UNL1        0.0000
     21 C           6.5864   -0.1807    4.5414 C.3     1  UNL1        0.0000
     22 C           2.4538    0.9881    1.9602 C.3     1  UNL1        0.0000
     23 H           6.7567    4.1816    4.7353 H       1  UNL1        0.0000
     24 H           6.9523    5.6937   -1.0868 H       1  UNL1        0.0000
     25 H           5.8291    3.7232   -0.2379 H       1  UNL1        0.0000
     26 H           7.4812    2.1307    3.4312 H       1  UNL1        0.0000
     27 H           4.0777   -0.4367    3.5911 H       1  UNL1        0.0000
     28 H           3.9555    3.1180    1.2381 H       1  UNL1        0.0000
     29 H          10.5003    8.7658    0.9557 H       1  UNL1        0.0000
     30 H          10.8496    9.9434    2.2008 H       1  UNL1        0.0000
     31 H           9.1981    9.6700    1.6868 H       1  UNL1        0.0000
     32 H           8.6478    7.1513   -1.6985 H       1  UNL1        0.0000
     33 H           8.8090    8.7909   -1.0225 H       1  UNL1        0.0000
     34 H           7.2020    8.0303   -1.1269 H       1  UNL1        0.0000
     35 H           9.3136    6.5802    6.0983 H       1  UNL1        0.0000
     36 H           7.9831    5.4904    6.5270 H       1  UNL1        0.0000
     37 H           7.6532    7.1680    6.1073 H       1  UNL1        0.0000
     38 H           6.6760   -1.1685    4.0899 H       1  UNL1        0.0000
     39 H           6.0412   -0.2926    5.4783 H       1  UNL1        0.0000
     40 H           7.5844    0.1921    4.7602 H       1  UNL1        0.0000
     41 H           2.2455    1.3574    0.9586 H       1  UNL1        0.0000
     42 H           1.7561    1.4686    2.6472 H       1  UNL1        0.0000
     43 H           2.2696   -0.0835    1.9876 H       1  UNL1        0.0000
     44 O          11.3600    7.3840    6.2611 O.3     1  UNL1        0.0000
     45 C          11.3339    6.6366    3.3460 C.3     1  UNL1        0.0000
     46 C          11.7539    5.9135    2.1832 C.2     1  UNL1        0.0000
     47 C          12.5351    4.8092    2.5597 C.2     1  UNL1        0.0000
     48 C          12.6476    4.8011    3.9698 C.ar    1  UNL1        0.0000
     49 C          11.9120    5.9378    4.4649 C.ar    1  UNL1        0.0000
     50 C          12.0293    6.2594    5.8385 C.ar    1  UNL1        0.0000
     51 C          12.7965    5.4614    6.6590 C.ar    1  UNL1        0.0000
     52 C          13.4618    4.3313    6.1655 C.ar    1  UNL1        0.0000
     53 C          13.3980    3.9732    4.8380 C.ar    1  UNL1        0.0000
     54 C          14.0675    2.7670    4.3341 C.ar    1  UNL1        0.0000
     55 C          13.3930    1.9032    3.4727 C.ar    1  UNL1        0.0000
     56 C          13.9968    0.7507    3.0005 C.ar    1  UNL1        0.0000
     57 C          15.2975    0.4610    3.3964 C.ar    1  UNL1        0.0000
     58 C          15.9888    1.3007    4.2570 C.ar    1  UNL1        0.0000
     59 C          15.3642    2.4496    4.7215 C.ar    1  UNL1        0.0000
     60 C           9.7083    9.1798    4.7348 C.3     1  UNL1        0.0000
     61 C          11.5886    7.8504    7.5653 C.3     1  UNL1        0.0000
     62 C          11.5676    6.3093    0.7460 C.3     1  UNL1        0.0000
     63 C          13.2662   -0.1807    2.0790 C.3     1  UNL1        0.0000
     64 C          17.3996    0.9881    4.6589 C.3     1  UNL1        0.0000
     65 H          13.0964    4.1818    1.8847 H       1  UNL1        0.0000
     66 H          12.9018    5.6940    7.7068 H       1  UNL1        0.0000
     67 H          14.0249    3.7235    6.8578 H       1  UNL1        0.0000
     68 H          12.3718    2.1309    3.1893 H       1  UNL1        0.0000
     69 H          15.7752   -0.4368    3.0287 H       1  UNL1        0.0000
     70 H          15.8983    3.1182    5.3812 H       1  UNL1        0.0000
     71 H           9.3527    8.7653    5.6651 H       1  UNL1        0.0000
     72 H           9.0030    9.9430    4.4202 H       1  UNL1        0.0000
     73 H          10.6545    9.6699    4.9340 H       1  UNL1        0.0000
     74 H          11.2068    7.1521    8.3189 H       1  UNL1        0.0000
     75 H          11.0457    8.7916    7.6425 H       1  UNL1        0.0000
     76 H          12.6526    8.0306    7.7465 H       1  UNL1        0.0000
     77 H          10.5389    6.5800    0.5223 H       1  UNL1        0.0000
     78 H          11.8695    5.4905    0.0933 H       1  UNL1        0.0000
     79 H          12.1990    7.1683    0.5128 H       1  UNL1        0.0000
     80 H          13.1768   -1.1684    2.5305 H       1  UNL1        0.0000
     81 H          13.8111   -0.2927    1.1419 H       1  UNL1        0.0000
     82 H          12.2682    0.1920    1.8604 H       1  UNL1        0.0000
     83 H          17.6081    1.3574    5.6605 H       1  UNL1        0.0000
     84 H          18.0971    1.4685    3.9718 H       1  UNL1        0.0000
     85 H          17.5837   -0.0836    4.6316 H       1  UNL1        0.0000
@<TRIPOS>BOND
     1    32    19    1
     2    34    19    1
     3    24     9    1
     4    33    19    1
     5    19     2    1
     6    25    10    1
     7     9    10   ar
     8     9     8   ar
     9    78    62    1
    10     2     8    1
    11    10    11   ar
    12    79    62    1
    13    77    62    1
    14    62    46    1
    15     8     7   ar
    16    29    18    1
    17    41    22    1
    18    81    63    1
    19    28    17    1
    20    31    18    1
    21    11    12    1
    22    11     6   ar
    23    82    63    1
    24    65    47    1
    25    18    30    1
    26    18     1    1
    27    17    12   ar
    28    17    16   ar
    29    22    43    1
    30    22    16    1
    31    22    42    1
    32    63    80    1
    33    63    56    1
    34     7     6   ar
    35     7     3    1
    36    46    47    2
    37    46    45    1
    38    12    13   ar
    39    16    15   ar
    40    47    48    1
    41     6     5    1
    42    56    57   ar
    43    56    55   ar
    44    69    57    1
    45    13    26    1
    46    13    14   ar
    47    68    55    1
    48    15    27    1
    49    15    14   ar
    50     3     1    1
    51     3     4    1
    52     1    45    1
    53     1    60    1
    54    45    49    1
    55    57    58   ar
    56    55    54   ar
    57    14    21    1
    58    48    49   ar
    59    48    53   ar
    60    84    64    1
    61     5     4    2
    62     5    23    1
    63    38    21    1
    64    58    64    1
    65    58    59   ar
    66    54    59   ar
    67    54    53    1
    68    72    60    1
    69     4    20    1
    70    49    50   ar
    71    21    40    1
    72    21    39    1
    73    85    64    1
    74    64    83    1
    75    59    70    1
    76    60    73    1
    77    60    71    1
    78    53    52   ar
    79    50    44    1
    80    50    51   ar
    81    20    35    1
    82    20    37    1
    83    20    36    1
    84    52    51   ar
    85    52    67    1
    86    44    61    1
    87    51    66    1
    88    61    75    1
    89    61    76    1
    90    61    74    1
