@<TRIPOS>MOLECULE
3,8,17,18,19,20,21
 69 70 0 0 0
SMALL
GASTEIGER

@<TRIPOS>ATOM
      1 SI          6.6730    4.2505    0.8498 Si      1  UNL1        0.0000
      2 SI          8.7011    6.8919   -3.3161 Si      1  UNL1        0.0000
      3 C           8.4239    2.4523   -0.6576 C.3     1  UNL1        0.0000
      4 C           8.4578    1.1287   -1.1861 C.3     1  UNL1        0.0000
      5 C           7.1875    0.5563   -1.0320 C.2     1  UNL1        0.0000
      6 C           6.3693    1.4590   -0.3295 C.2     1  UNL1        0.0000
      7 C           7.1114    2.6330   -0.0517 C.3     1  UNL1        0.0000
      8 C           7.0974    5.3652   -0.6496 C.3     1  UNL1        0.0000
      9 H           8.1121    5.7798   -0.6185 H       1  UNL1        0.0000
     10 C           6.1311    6.3695   -1.0559 C.2     1  UNL1        0.0000
     11 H           5.0887    6.1517   -0.8458 H       1  UNL1        0.0000
     12 C           6.4225    7.5365   -1.6488 C.2     1  UNL1        0.0000
     13 H           5.6178    8.2101   -1.9121 H       1  UNL1        0.0000
     14 C           7.8044    7.9833   -1.9907 C.3     1  UNL1        0.0000
     15 H           8.4168    7.9853   -1.0850 H       1  UNL1        0.0000
     16 H           7.7752    9.0124   -2.3469 H       1  UNL1        0.0000
     17 C           6.6956    4.8696   -3.9965 C.2     1  UNL1        0.0000
     18 C           6.6119    3.4908   -4.2935 C.2     1  UNL1        0.0000
     19 C           7.8682    2.8952   -4.0111 C.2     1  UNL1        0.0000
     20 C           8.7273    3.9058   -3.5109 C.2     1  UNL1        0.0000
     21 C           8.0035    5.1498   -3.4962 C.3     1  UNL1        0.0000
     22 C           9.6711    3.1490   -0.1630 C.3     1  UNL1        0.0000
     23 H           9.8434    2.8757    0.8813 H       1  UNL1        0.0000
     24 H           9.6007    4.2362   -0.2174 H       1  UNL1        0.0000
     25 H          10.5444    2.8299   -0.7275 H       1  UNL1        0.0000
     26 C           9.6859    0.3818   -1.6086 C.3     1  UNL1        0.0000
     27 H          10.4480    1.0373   -2.0241 H       1  UNL1        0.0000
     28 H           9.4564   -0.3894   -2.3412 H       1  UNL1        0.0000
     29 H          10.1202   -0.1134   -0.7363 H       1  UNL1        0.0000
     30 C           6.7477   -0.8066   -1.4702 C.3     1  UNL1        0.0000
     31 H           6.6772   -1.4798   -0.6137 H       1  UNL1        0.0000
     32 H           7.4472   -1.2436   -2.1799 H       1  UNL1        0.0000
     33 H           5.7629   -0.7599   -1.9362 H       1  UNL1        0.0000
     34 C           4.9757    1.1474    0.1089 C.3     1  UNL1        0.0000
     35 H           4.9441    0.1530    0.5561 H       1  UNL1        0.0000
     36 H           4.2846    1.1540   -0.7363 H       1  UNL1        0.0000
     37 H           4.6287    1.8725    0.8383 H       1  UNL1        0.0000
     38 C           5.6085    5.8505   -4.3130 C.3     1  UNL1        0.0000
     39 H           5.4427    5.8782   -5.3923 H       1  UNL1        0.0000
     40 H           5.8676    6.8476   -3.9719 H       1  UNL1        0.0000
     41 H           4.6715    5.5575   -3.8354 H       1  UNL1        0.0000
     42 C           5.4660    2.7840   -4.9537 C.3     1  UNL1        0.0000
     43 H           4.5371    3.3333   -4.8151 H       1  UNL1        0.0000
     44 H           5.3377    1.7806   -4.5439 H       1  UNL1        0.0000
     45 H           5.6543    2.6910   -6.0270 H       1  UNL1        0.0000
     46 C           8.2100    1.4930   -4.4226 C.3     1  UNL1        0.0000
     47 H           7.6035    0.7605   -3.8860 H       1  UNL1        0.0000
     48 H           9.2593    1.2694   -4.2526 H       1  UNL1        0.0000
     49 H           8.0078    1.3729   -5.4894 H       1  UNL1        0.0000
     50 C          10.2192    3.7889   -3.4067 C.3     1  UNL1        0.0000
     51 H          10.5279    2.7519   -3.2982 H       1  UNL1        0.0000
     52 H          10.6141    4.3609   -2.5728 H       1  UNL1        0.0000
     53 H          10.6735    4.1737   -4.3231 H       1  UNL1        0.0000
     54 C           7.7761    4.5580    2.3927 C.3     1  UNL1        0.0000
     55 H           8.7947    4.8215    2.1332 H       1  UNL1        0.0000
     56 H           7.8134    3.6760    3.0230 H       1  UNL1        0.0000
     57 H           7.3697    5.3688    2.9870 H       1  UNL1        0.0000
     58 C           4.8746    4.4624    1.4657 C.3     1  UNL1        0.0000
     59 H           4.7188    5.4855    1.7939 H       1  UNL1        0.0000
     60 H           4.6691    3.8150    2.3123 H       1  UNL1        0.0000
     61 H           4.1515    4.2479    0.6868 H       1  UNL1        0.0000
     62 C          10.5468    7.0038   -2.8107 C.3     1  UNL1        0.0000
     63 H          11.2043    6.5647   -3.5519 H       1  UNL1        0.0000
     64 H          10.7563    6.5361   -1.8532 H       1  UNL1        0.0000
     65 H          10.8197    8.0511   -2.7204 H       1  UNL1        0.0000
     66 C           8.5747    7.7448   -5.0279 C.3     1  UNL1        0.0000
     67 H           9.0776    8.7066   -5.0107 H       1  UNL1        0.0000
     68 H           7.5480    7.9166   -5.3318 H       1  UNL1        0.0000
     69 H           9.0454    7.1432   -5.7994 H       1  UNL1        0.0000
@<TRIPOS>BOND
     1    45    42    1
     2    69    66    1
     3    49    46    1
     4    39    38    1
     5    68    66    1
     6    66    67    1
     7    66     2    1
     8    42    43    1
     9    42    44    1
    10    42    18    1
    11    46    48    1
    12    46    19    1
    13    46    47    1
    14    53    50    1
    15    38    17    1
    16    38    40    1
    17    38    41    1
    18    18    19    1
    19    18    17    2
    20    19    20    2
    21    17    21    1
    22    63    62    1
    23    20    21    1
    24    20    50    1
    25    21     2    1
    26    50    51    1
    27    50    52    1
    28     2    62    1
    29     2    14    1
    30    62    65    1
    31    62    64    1
    32    16    14    1
    33    28    26    1
    34    32    30    1
    35    27    26    1
    36    14    12    1
    37    14    15    1
    38    33    30    1
    39    13    12    1
    40    12    10    2
    41    26     4    1
    42    26    29    1
    43    30     5    1
    44    30    31    1
    45     4     5    1
    46     4     3    1
    47    10    11    1
    48    10     8    1
    49     5     6    2
    50    36    34    1
    51    25    22    1
    52     3    22    1
    53     3     7    1
    54     8     9    1
    55     8     1    1
    56     6     7    1
    57     6    34    1
    58    24    22    1
    59    22    23    1
    60     7     1    1
    61    34    35    1
    62    34    37    1
    63    61    58    1
    64     1    58    1
    65     1    54    1
    66    58    59    1
    67    58    60    1
    68    55    54    1
    69    54    57    1
    70    54    56    1
