@<TRIPOS>MOLECULE
29,30,31,33,34,49,50,55
 56 58 0 0 0
SMALL
GASTEIGER

@<TRIPOS>ATOM
      1 SI          6.8315    0.1805   12.4445 Si      1  UNL1        0.0000
      2 C           8.3973   -0.4497   13.3315 C.3     1  UNL1        0.0000
      3 H           8.7424   -1.3811   12.8949 H       1  UNL1        0.0000
      4 H           8.1938   -0.6302   14.3815 H       1  UNL1        0.0000
      5 H           9.2099    0.2653   13.2740 H       1  UNL1        0.0000
      6 C           5.3440   -0.8804   12.9978 C.3     1  UNL1        0.0000
      7 H           4.4689   -0.6992   12.3827 H       1  UNL1        0.0000
      8 H           5.0776   -0.6887   14.0319 H       1  UNL1        0.0000
      9 H           5.5869   -1.9353   12.9171 H       1  UNL1        0.0000
     10 O           7.0780   -0.0705   10.8426 O.3     1  UNL1        0.0000
     11 SI          6.4770    0.2324    9.3434 Si      1  UNL1        0.0000
     12 C           7.7435   -0.5851    8.1692 C.3     1  UNL1        0.0000
     13 H           8.7037   -0.0825    8.2151 H       1  UNL1        0.0000
     14 H           7.3998   -0.5399    7.1415 H       1  UNL1        0.0000
     15 H           7.9027   -1.6282    8.4227 H       1  UNL1        0.0000
     16 C           4.7891   -0.6472    9.1964 C.3     1  UNL1        0.0000
     17 H           4.8696   -1.6883    9.4926 H       1  UNL1        0.0000
     18 H           4.4157   -0.6242    8.1783 H       1  UNL1        0.0000
     19 H           4.0523   -0.1719    9.8368 H       1  UNL1        0.0000
     20 SI          8.5956    3.0161   10.7345 Si      1  UNL1        0.0000
     21 C           9.6489    4.6213   10.7476 C.3     1  UNL1        0.0000
     22 H          10.2431    4.6870   11.6526 H       1  UNL1        0.0000
     23 H           9.0456    5.5205   10.6836 H       1  UNL1        0.0000
     24 H          10.3338    4.6286    9.9071 H       1  UNL1        0.0000
     25 C           9.8608    1.5863   10.6962 C.3     1  UNL1        0.0000
     26 H           9.3733    0.6207   10.6991 H       1  UNL1        0.0000
     27 H          10.5289    1.6332   11.5498 H       1  UNL1        0.0000
     28 H          10.4710    1.6531    9.8011 H       1  UNL1        0.0000
     29 C           6.5337    2.0107   12.6455 C.2     1  UNL1        0.0000
     30 C           7.3753    3.0765   12.1791 C.3     1  UNL1        0.0000
     31 C           6.8110    4.2879   12.6537 C.2     1  UNL1        0.0000
     32 H           7.2732    5.2602   12.5512 H       1  UNL1        0.0000
     33 C           5.6680    4.0018   13.4254 C.2     1  UNL1        0.0000
     34 C           5.5069    2.6025   13.4202 C.2     1  UNL1        0.0000
     35 H           4.8249    2.0524   14.0556 H       1  UNL1        0.0000
     36 C           4.7656    4.9607   14.1706 C.3     1  UNL1        0.0000
     37 C           3.3122    4.6463   13.7803 C.3     1  UNL1        0.0000
     38 H           2.9963    3.6928   14.1989 H       1  UNL1        0.0000
     39 H           3.2350    4.5979   12.6896 H       1  UNL1        0.0000
     40 H           2.6407    5.4176   14.1548 H       1  UNL1        0.0000
     41 C           4.9519    4.7824   15.6844 C.3     1  UNL1        0.0000
     42 H           4.7400    3.7580   15.9809 H       1  UNL1        0.0000
     43 H           4.2847    5.4459   16.2313 H       1  UNL1        0.0000
     44 H           5.9769    5.0116   15.9665 H       1  UNL1        0.0000
     45 C           5.0728    6.4102   13.7895 C.3     1  UNL1        0.0000
     46 H           4.3924    7.0866   14.3041 H       1  UNL1        0.0000
     47 H           4.9519    6.5388   12.7167 H       1  UNL1        0.0000
     48 H           6.0890    6.6777   14.0690 H       1  UNL1        0.0000
     49 C           6.3290    2.0727    9.0455 C.3     1  UNL1        0.0000
     50 C           7.3718    3.0637    9.2990 C.2     1  UNL1        0.0000
     51 C           7.1708    4.1131    8.3989 C.2     1  UNL1        0.0000
     52 H           7.8048    4.9807    8.3030 H       1  UNL1        0.0000
     53 C           6.0619    3.8303    7.5913 C.2     1  UNL1        0.0000
     54 H           5.6932    4.4504    6.7892 H       1  UNL1        0.0000
     55 C           5.5552    2.5947    7.9660 C.2     1  UNL1        0.0000
     56 H           4.7835    2.0469    7.4437 H       1  UNL1        0.0000
@<TRIPOS>BOND
     1    54    53    1
     2    14    12    1
     3    56    55    1
     4    53    55    2
     5    53    51    1
     6    55    49    1
     7    12    13    1
     8    12    15    1
     9    12    11    1
    10    18    16    1
    11    52    51    1
    12    51    50    2
    13    49    50    1
    14    49    11    1
    15    16    11    1
    16    16    17    1
    17    16    19    1
    18    50    20    1
    19    11    10    1
    20    28    25    1
    21    24    21    1
    22    23    21    1
    23    25    26    1
    24    25    20    1
    25    25    27    1
    26    20    21    1
    27    20    30    1
    28    21    22    1
    29    10     1    1
    30    30    29    1
    31    30    31    1
    32     7     6    1
    33     1    29    1
    34     1     6    1
    35     1     2    1
    36    32    31    1
    37    29    34    2
    38    31    33    2
    39    39    37    1
    40    47    45    1
    41     3     2    1
    42     9     6    1
    43     6     8    1
    44     5     2    1
    45     2     4    1
    46    34    33    1
    47    34    35    1
    48    33    36    1
    49    37    40    1
    50    37    36    1
    51    37    38    1
    52    45    48    1
    53    45    36    1
    54    45    46    1
    55    36    41    1
    56    41    44    1
    57    41    42    1
    58    41    43    1
