@<TRIPOS>MOLECULE
1,2,3
 35 36 0 0 0
SMALL
GASTEIGER

@<TRIPOS>ATOM
      1 S           5.1257    3.5432    7.4120 S.3     1  UNL1       -0.0818
      2 O           3.0505    5.3046    8.2683 O.3     1  UNL1       -0.2864
      3 O           2.9940    4.7485    5.6740 O.3     1  UNL1       -0.2864
      4 C           4.1156    5.4658    9.0315 C.ar    1  UNL1        0.1955
      5 C           5.2427    4.6580    8.8101 C.ar    1  UNL1        0.0600
      6 C           6.3811    4.7331    9.5837 C.ar    1  UNL1       -0.0414
      7 H           7.2123    4.0776    9.3727 H       1  UNL1        0.0632
      8 C           6.4439    5.6489   10.6254 C.ar    1  UNL1       -0.0489
      9 C           5.3492    6.4770   10.8362 C.ar    1  UNL1       -0.0522
     10 H           5.3893    7.2060   11.6341 H       1  UNL1        0.0624
     11 C           4.1956    6.4130   10.0706 C.ar    1  UNL1       -0.0024
     12 C           7.6680    5.7314   11.4870 C.3     1  UNL1       -0.0397
     13 H           7.7864    4.8147   12.0642 H       1  UNL1        0.0278
     14 H           7.5996    6.5672   12.1782 H       1  UNL1        0.0278
     15 H           8.5596    5.8565   10.8747 H       1  UNL1        0.0278
     16 C           3.0361    7.3204   10.3520 C.3     1  UNL1       -0.0360
     17 H           2.4434    7.4574    9.4522 H       1  UNL1        0.0279
     18 H           3.3853    8.2871   10.7089 H       1  UNL1        0.0279
     19 H           2.3933    6.8864   11.1189 H       1  UNL1        0.0279
     20 C           4.1977    5.2147    5.4177 C.ar    1  UNL1        0.1955
     21 C           5.3321    4.7796    6.1214 C.ar    1  UNL1        0.0600
     22 C           6.6004    5.2682    5.8574 C.ar    1  UNL1       -0.0414
     23 H           7.4345    4.8956    6.4329 H       1  UNL1        0.0632
     24 C           6.7878    6.2293    4.8803 C.ar    1  UNL1       -0.0489
     25 C           5.6739    6.6653    4.1665 C.ar    1  UNL1       -0.0522
     26 H           5.8074    7.4104    3.3941 H       1  UNL1        0.0624
     27 C           4.4034    6.1813    4.4036 C.ar    1  UNL1       -0.0024
     28 C           8.1457    6.7944    4.5905 C.3     1  UNL1       -0.0397
     29 H           8.9075    6.2931    5.1817 H       1  UNL1        0.0278
     30 H           8.1712    7.8587    4.8233 H       1  UNL1        0.0278
     31 H           8.3898    6.6786    3.5354 H       1  UNL1        0.0278
     32 C           3.2293    6.6529    3.5976 C.3     1  UNL1       -0.0360
     33 H           3.3314    7.7065    3.3458 H       1  UNL1        0.0279
     34 H           2.3086    6.5010    4.1570 H       1  UNL1        0.0279
     35 H           3.1606    6.0851    2.6685 H       1  UNL1        0.0279
@<TRIPOS>BOND
     1    35    32    1
     2    33    32    1
     3    26    25    1
     4    31    28    1
     5    32    34    1
     6    32    27    1
     7    25    27   ar
     8    25    24   ar
     9    27    20   ar
    10    28    30    1
    11    28    24    1
    12    28    29    1
    13    24    22   ar
    14    20     3    1
    15    20    21   ar
    16    22    21   ar
    17    22    23    1
    18    21     1    1
    19     1     5    1
    20     2     4    1
    21     5     4   ar
    22     5     6   ar
    23     4    11   ar
    24     7     6    1
    25    17    16    1
    26     6     8   ar
    27    11    16    1
    28    11     9   ar
    29    16    18    1
    30    16    19    1
    31     8     9   ar
    32     8    12    1
    33     9    10    1
    34    15    12    1
    35    12    13    1
    36    12    14    1
