@<TRIPOS>MOLECULE
1,2,3
 53 54 0 0 0
SMALL
GASTEIGER

@<TRIPOS>ATOM
      1 S         -10.4066    0.9221    9.9007 S.3     1  UNL1       -0.0818
      2 O         -10.1214    3.3946   11.3604 O.3     1  UNL1       -0.2864
      3 O         -11.8756    3.3437    9.2536 O.3     1  UNL1       -0.2864
      4 C          -8.9320    2.9008   11.0666 C.ar    1  UNL1        0.1963
      5 C          -8.8567    1.6277   10.4787 C.ar    1  UNL1        0.0600
      6 C          -7.6659    0.9703   10.2461 C.ar    1  UNL1       -0.0413
      7 H          -7.6777   -0.0163    9.8088 H       1  UNL1        0.0632
      8 C          -6.4764    1.5954   10.5738 C.ar    1  UNL1       -0.0489
      9 C          -6.5291    2.8973   11.0641 C.ar    1  UNL1       -0.0514
     10 H          -5.5882    3.3848   11.2616 H       1  UNL1        0.0624
     11 C          -7.7092    3.5804   11.3043 C.ar    1  UNL1        0.0060
     12 C          -5.1559    0.9205   10.3546 C.3     1  UNL1       -0.0397
     13 H          -5.2887   -0.1468   10.1986 H       1  UNL1        0.0278
     14 H          -4.5016    1.0712   11.2110 H       1  UNL1        0.0278
     15 H          -4.6592    1.3358    9.4773 H       1  UNL1        0.0278
     16 C         -11.1041    2.9882    8.2442 C.ar    1  UNL1        0.1963
     17 C         -10.3927    1.7792    8.3206 C.ar    1  UNL1        0.0600
     18 C          -9.6390    1.2718    7.2805 C.ar    1  UNL1       -0.0413
     19 H          -9.1298    0.3283    7.4035 H       1  UNL1        0.0632
     20 C          -9.5414    1.9915    6.1052 C.ar    1  UNL1       -0.0489
     21 C         -10.1808    3.2269    6.0354 C.ar    1  UNL1       -0.0514
     22 H         -10.0614    3.7863    5.1218 H       1  UNL1        0.0624
     23 C         -10.9450    3.7576    7.0596 C.ar    1  UNL1        0.0060
     24 C          -8.7542    1.4805    4.9363 C.3     1  UNL1       -0.0397
     25 H          -9.4083    1.3234    4.0790 H       1  UNL1        0.0278
     26 H          -8.2703    0.5381    5.1787 H       1  UNL1        0.0278
     27 H          -7.9902    2.2000    4.6447 H       1  UNL1        0.0278
     28 C          -7.7249    5.0358   11.7521 C.3     1  UNL1       -0.0090
     29 C          -6.3232    5.6434   11.8584 C.3     1  UNL1       -0.0559
     30 H          -5.7287    5.1344   12.6136 H       1  UNL1        0.0238
     31 H          -6.4112    6.6877   12.1515 H       1  UNL1        0.0238
     32 H          -5.8015    5.6049   10.9047 H       1  UNL1        0.0238
     33 C          -8.4061    5.1539   13.1190 C.3     1  UNL1       -0.0559
     34 H          -9.4024    4.7246   13.0786 H       1  UNL1        0.0238
     35 H          -8.4840    6.1998   13.4104 H       1  UNL1        0.0238
     36 H          -7.8308    4.6264   13.8761 H       1  UNL1        0.0238
     37 C          -8.5158    5.8377   10.7088 C.3     1  UNL1       -0.0559
     38 H          -8.5539    6.8893   10.9868 H       1  UNL1        0.0238
     39 H          -9.5344    5.4626   10.6345 H       1  UNL1        0.0238
     40 H          -8.0417    5.7537    9.7320 H       1  UNL1        0.0238
     41 C         -11.5896    5.1335    6.9463 C.3     1  UNL1       -0.0090
     42 C         -11.1935    5.8751    5.6653 C.3     1  UNL1       -0.0559
     43 H         -11.6478    6.8640    5.6749 H       1  UNL1        0.0238
     44 H         -11.5497    5.3548    4.7793 H       1  UNL1        0.0238
     45 H         -10.1151    6.0016    5.5983 H       1  UNL1        0.0238
     46 C         -13.1135    4.9749    6.9576 C.3     1  UNL1       -0.0559
     47 H         -13.5937    5.9508    6.9173 H       1  UNL1        0.0238
     48 H         -13.4291    4.4655    7.8609 H       1  UNL1        0.0238
     49 H         -13.4385    4.3933    6.0976 H       1  UNL1        0.0238
     50 C         -11.1470    5.9903    8.1397 C.3     1  UNL1       -0.0559
     51 H         -11.4086    5.5038    9.0776 H       1  UNL1        0.0238
     52 H         -11.6360    6.9621    8.1066 H       1  UNL1        0.0238
     53 H         -10.0701    6.1448    8.1135 H       1  UNL1        0.0238
@<TRIPOS>BOND
     1    25    24    1
     2    27    24    1
     3    44    42    1
     4    24    26    1
     5    24    20    1
     6    22    21    1
     7    45    42    1
     8    42    43    1
     9    42    41    1
    10    21    20   ar
    11    21    23   ar
    12    49    46    1
    13    20    18   ar
    14    47    46    1
    15    41    46    1
    16    41    23    1
    17    41    50    1
    18    46    48    1
    19    23    16   ar
    20    18    19    1
    21    18    17   ar
    22    52    50    1
    23    53    50    1
    24    50    51    1
    25    16    17   ar
    26    16     3    1
    27    17     1    1
    28    15    12    1
    29    40    37    1
    30     7     6    1
    31     1     5    1
    32    13    12    1
    33     6     5   ar
    34     6     8   ar
    35    12     8    1
    36    12    14    1
    37     5     4   ar
    38     8     9   ar
    39    39    37    1
    40    37    38    1
    41    37    28    1
    42    32    29    1
    43     9    10    1
    44     9    11   ar
    45     4    11   ar
    46     4     2    1
    47    11    28    1
    48    28    29    1
    49    28    33    1
    50    29    31    1
    51    29    30    1
    52    34    33    1
    53    33    35    1
    54    33    36    1
