@<TRIPOS>MOLECULE
1,7,8
 8 7 0 0 0
SMALL
GASTEIGER

@<TRIPOS>ATOM
      1 S           9.3878    2.0387    7.7888 S.3     1  UNL1        0.1076
      2 C           9.8061    1.4623    6.0346 C.3     1  UNL1        0.5278
      3 F           8.6757    1.9010    5.3869 F       1  UNL1       -0.1499
      4 F          10.8329    2.0767    5.4540 F       1  UNL1       -0.1499
      5 F           9.9027    0.1603    5.8093 F       1  UNL1       -0.1499
      6 O          10.4597    1.6888    8.6372 O.3     1  UNL1       -0.0619
      7 O           8.0865    1.4137    7.8864 O.3     1  UNL1       -0.0619
      8 O           9.1686    3.4441    7.4318 O.3     1  UNL1       -0.0619
@<TRIPOS>BOND
     1     3     2    1
     2     4     2    1
     3     5     2    1
     4     2     1    1
     5     8     1    1
     6     1     7    1
     7     1     6    1
