@<TRIPOS>MOLECULE
1,2,3,14,43
 72 76 0 0 0
SMALL
GASTEIGER

@<TRIPOS>ATOM
      1 P          -1.3970    3.6903    6.4685 P.3     1  UNL1       -0.0125
      2 N           1.5420    2.9678    4.1355 N.pl3   1  UNL1       -0.2404
      3 N           0.0504    1.2320    5.9701 N.pl3   1  UNL1       -0.2404
      4 C           0.2213    3.9564    7.2608 C.ar    1  UNL1       -0.0096
      5 C           0.4426    4.0355    8.6265 C.ar    1  UNL1       -0.0532
      6 H          -0.3850    3.9678    9.3195 H       1  UNL1        0.0624
      7 C           1.7404    4.1760    9.0876 C.ar    1  UNL1       -0.0611
      8 H           1.9310    4.2238   10.1498 H       1  UNL1        0.0618
      9 C           2.7946    4.2447    8.1907 C.ar    1  UNL1       -0.0614
     10 H           3.8036    4.3554    8.5606 H       1  UNL1        0.0618
     11 C           2.5700    4.1636    6.8267 C.ar    1  UNL1       -0.0561
     12 H           3.3944    4.2086    6.1299 H       1  UNL1        0.0621
     13 C           1.2762    4.0101    6.3485 C.ar    1  UNL1       -0.0150
     14 C           0.9095    3.8976    4.9118 C.3     1  UNL1        0.0924
     15 H           0.7461    4.8964    4.4703 H       1  UNL1        0.0590
     16 C           2.2429    3.2959    3.0137 C.ar    1  UNL1        0.0490
     17 C           2.6144    4.6161    2.6912 C.ar    1  UNL1       -0.0362
     18 H           2.3970    5.4196    3.3814 H       1  UNL1        0.0639
     19 C           3.3068    4.9091    1.5307 C.ar    1  UNL1       -0.0484
     20 C           3.6689    3.8815    0.6688 C.ar    1  UNL1       -0.0558
     21 H           4.2049    4.1111   -0.2414 H       1  UNL1        0.0623
     22 C           3.3923    2.5589    0.9994 C.ar    1  UNL1       -0.0484
     23 C           2.6996    2.2757    2.1604 C.ar    1  UNL1       -0.0362
     24 H           2.5101    1.2536    2.4425 H       1  UNL1        0.0639
     25 C           3.6624    6.3291    1.1906 C.3     1  UNL1       -0.0396
     26 H           3.0900    6.6676    0.3256 H       1  UNL1        0.0278
     27 H           4.7188    6.4092    0.9397 H       1  UNL1        0.0278
     28 H           3.4527    6.9963    2.0241 H       1  UNL1        0.0278
     29 C           3.8341    1.4457    0.0939 C.3     1  UNL1       -0.0396
     30 H           3.0256    1.1696   -0.5849 H       1  UNL1        0.0278
     31 H           4.1030    0.5647    0.6724 H       1  UNL1        0.0278
     32 H           4.6896    1.7482   -0.5062 H       1  UNL1        0.0278
     33 C          -2.2200    2.4617    7.5128 C.ar    1  UNL1       -0.0096
     34 C          -2.9769    2.7679    8.6372 C.ar    1  UNL1       -0.0532
     35 H          -2.9695    3.7745    9.0336 H       1  UNL1        0.0624
     36 C          -3.7520    1.7970    9.2451 C.ar    1  UNL1       -0.0611
     37 H          -4.3330    2.0374   10.1230 H       1  UNL1        0.0618
     38 C          -3.7973    0.5178    8.7036 C.ar    1  UNL1       -0.0614
     39 H          -4.4323   -0.2328    9.1526 H       1  UNL1        0.0618
     40 C          -3.0155    0.1921    7.6163 C.ar    1  UNL1       -0.0561
     41 H          -3.0236   -0.8183    7.2281 H       1  UNL1        0.0621
     42 C          -2.1673    1.1377    7.0214 C.ar    1  UNL1       -0.0150
     43 C          -1.2705    0.7712    5.9379 C.3     1  UNL1        0.0924
     44 H          -1.3383   -0.2928    5.6765 H       1  UNL1        0.0590
     45 C           0.9817    0.8947    6.9101 C.ar    1  UNL1        0.0490
     46 C           2.3327    1.1571    6.6364 C.ar    1  UNL1       -0.0362
     47 H           2.5776    1.5721    5.6712 H       1  UNL1        0.0639
     48 C           3.3136    0.8790    7.5655 C.ar    1  UNL1       -0.0484
     49 C           2.9546    0.3327    8.7944 C.ar    1  UNL1       -0.0558
     50 H           3.7202    0.1217    9.5282 H       1  UNL1        0.0623
     51 C           1.6291    0.0459    9.0848 C.ar    1  UNL1       -0.0484
     52 C           0.6520    0.3160    8.1414 C.ar    1  UNL1       -0.0362
     53 H          -0.3797    0.0911    8.3677 H       1  UNL1        0.0639
     54 C           4.7565    1.1557    7.2616 C.3     1  UNL1       -0.0396
     55 H           5.3308    0.2297    7.2715 H       1  UNL1        0.0278
     56 H           5.1832    1.8195    8.0125 H       1  UNL1        0.0278
     57 H           4.8607    1.6185    6.2840 H       1  UNL1        0.0278
     58 C           1.2520   -0.5736   10.3992 C.3     1  UNL1       -0.0396
     59 H           1.2653   -1.6613   10.3178 H       1  UNL1        0.0278
     60 H           0.2499   -0.2708   10.6956 H       1  UNL1        0.0278
     61 H           1.9538   -0.2861   11.1791 H       1  UNL1        0.0278
     62 C          -2.2172    5.2838    6.8459 C.ar    1  UNL1       -0.0147
     63 C          -3.5908    5.4065    7.0444 C.ar    1  UNL1       -0.0535
     64 H          -4.2101    4.5228    7.1031 H       1  UNL1        0.0624
     65 C          -4.1668    6.6546    7.1966 C.ar    1  UNL1       -0.0611
     66 H          -5.2310    6.7356    7.3671 H       1  UNL1        0.0618
     67 C          -3.3873    7.7978    7.1303 C.ar    1  UNL1       -0.0617
     68 H          -3.8408    8.7706    7.2501 H       1  UNL1        0.0618
     69 C          -2.0240    7.6871    6.9092 C.ar    1  UNL1       -0.0611
     70 H          -1.4115    8.5756    6.8529 H       1  UNL1        0.0618
     71 C          -1.4442    6.4413    6.7619 C.ar    1  UNL1       -0.0535
     72 H          -0.3788    6.3556    6.5935 H       1  UNL1        0.0624
@<TRIPOS>BOND
     1    30    29    1
     2    32    29    1
     3    21    20    1
     4    29    31    1
     5    29    22    1
     6    26    25    1
     7    20    22   ar
     8    20    19   ar
     9    27    25    1
    10    22    23   ar
    11    25    19    1
    12    25    28    1
    13    19    17   ar
    14    23    24    1
    15    23    16   ar
    16    17    16   ar
    17    17    18    1
    18    16     2    1
    19     2    14    1
    20    15    14    1
    21    14    13    1
    22    47    46    1
    23    44    43    1
    24    43     3    1
    25    43    42    1
    26     3    45    1
    27    12    11    1
    28    57    54    1
    29    13    11   ar
    30    13     4   ar
    31     1    62    1
    32     1     4    1
    33     1    33    1
    34    72    71    1
    35    46    45   ar
    36    46    48   ar
    37    71    62   ar
    38    71    69   ar
    39    11     9   ar
    40    62    63   ar
    41    70    69    1
    42    69    67   ar
    43    45    52   ar
    44    42    33   ar
    45    42    40   ar
    46    63    64    1
    47    63    65   ar
    48    67    65   ar
    49    67    68    1
    50    65    66    1
    51    41    40    1
    52     4     5   ar
    53    54    55    1
    54    54    48    1
    55    54    56    1
    56    33    34   ar
    57    48    49   ar
    58    40    38   ar
    59    52    53    1
    60    52    51   ar
    61     9    10    1
    62     9     7   ar
    63     5     7   ar
    64     5     6    1
    65    34    35    1
    66    34    36   ar
    67    38    39    1
    68    38    36   ar
    69    49    51   ar
    70    49    50    1
    71    51    58    1
    72     7     8    1
    73    36    37    1
    74    59    58    1
    75    58    60    1
    76    58    61    1
