@<TRIPOS>MOLECULE
1,2,3,14,43
 72 76 0 0 0
SMALL
GASTEIGER

@<TRIPOS>ATOM
      1 P           8.7024   19.2021   17.5357 P.3     1  UNL1       -0.0125
      2 N           8.8451   19.7870   14.7461 N.pl3   1  UNL1       -0.2404
      3 N           7.2180   22.1629   15.7229 N.pl3   1  UNL1       -0.2404
      4 C           9.7342   17.8811   16.8750 C.ar    1  UNL1       -0.0096
      5 C          10.4739   18.2294   15.7263 C.ar    1  UNL1       -0.0150
      6 C          11.4838   17.3467   15.3198 C.ar    1  UNL1       -0.0561
      7 H          12.0940   17.6071   14.4650 H       1  UNL1        0.0621
      8 C          11.6913   16.1507   15.9731 C.ar    1  UNL1       -0.0614
      9 H          12.4678   15.4810   15.6311 H       1  UNL1        0.0618
     10 C          10.9016   15.7898   17.0585 C.ar    1  UNL1       -0.0611
     11 H          11.0558   14.8422   17.5526 H       1  UNL1        0.0618
     12 C           9.9383   16.6671   17.5200 C.ar    1  UNL1       -0.0532
     13 H           9.3544   16.4206   18.3973 H       1  UNL1        0.0624
     14 C          10.1981   19.4753   15.0236 C.3     1  UNL1        0.0924
     15 H          10.8290   19.5734   14.1254 H       1  UNL1        0.0590
     16 C           7.9941   19.0652   13.9619 C.ar    1  UNL1        0.0490
     17 C           6.7954   19.6788   13.5642 C.ar    1  UNL1       -0.0362
     18 H           6.6286   20.7059   13.8567 H       1  UNL1        0.0639
     19 C           5.8551   18.9921   12.8242 C.ar    1  UNL1       -0.0484
     20 C           6.1088   17.6728   12.4611 C.ar    1  UNL1       -0.0558
     21 H           5.3715   17.1269   11.8892 H       1  UNL1        0.0623
     22 C           7.2971   17.0494   12.8175 C.ar    1  UNL1       -0.0484
     23 C           8.2378   17.7475   13.5543 C.ar    1  UNL1       -0.0362
     24 H           9.1608   17.2665   13.8414 H       1  UNL1        0.0639
     25 C           4.5729   19.6519   12.4104 C.3     1  UNL1       -0.0396
     26 H           3.7192   19.0711   12.7565 H       1  UNL1        0.0278
     27 H           4.5115   19.7180   11.3243 H       1  UNL1        0.0278
     28 H           4.5049   20.6545   12.8244 H       1  UNL1        0.0278
     29 C           7.5639   15.6348   12.3934 C.3     1  UNL1       -0.0396
     30 H           6.6681   15.0260   12.4988 H       1  UNL1        0.0278
     31 H           8.3610   15.1959   12.9887 H       1  UNL1        0.0278
     32 H           7.8649   15.6074   11.3455 H       1  UNL1        0.0278
     33 C           6.9830   18.9134   17.0235 C.ar    1  UNL1       -0.0096
     34 C           6.3080   20.0909   16.6815 C.ar    1  UNL1       -0.0150
     35 C           5.0122   20.0000   16.1932 C.ar    1  UNL1       -0.0561
     36 H           4.4803   20.8994   15.9165 H       1  UNL1        0.0621
     37 C           4.4137   18.7592   16.0434 C.ar    1  UNL1       -0.0614
     38 H           3.4081   18.6957   15.6536 H       1  UNL1        0.0618
     39 C           5.0943   17.6002   16.3783 C.ar    1  UNL1       -0.0611
     40 H           4.6225   16.6381   16.2421 H       1  UNL1        0.0618
     41 C           6.3860   17.6720   16.8729 C.ar    1  UNL1       -0.0532
     42 H           6.9361   16.7735   17.1180 H       1  UNL1        0.0624
     43 C           7.0623   21.3718   16.8334 C.3     1  UNL1        0.0924
     44 H           6.8324   21.8840   17.7840 H       1  UNL1        0.0590
     45 C           6.6101   23.3625   15.5172 C.ar    1  UNL1        0.0490
     46 C           5.5949   23.8684   16.3438 C.ar    1  UNL1       -0.0362
     47 H           5.2656   23.2965   17.2004 H       1  UNL1        0.0639
     48 C           4.9962   25.0885   16.0779 C.ar    1  UNL1       -0.0484
     49 C           5.3876   25.8191   14.9662 C.ar    1  UNL1       -0.0558
     50 H           4.9213   26.7707   14.7545 H       1  UNL1        0.0623
     51 C           6.3637   25.3256   14.1037 C.ar    1  UNL1       -0.0484
     52 C           6.9564   24.1134   14.3816 C.ar    1  UNL1       -0.0362
     53 H           7.6953   23.6926   13.7146 H       1  UNL1        0.0639
     54 C           3.9235   25.6001   16.9957 C.3     1  UNL1       -0.0396
     55 H           3.0844   24.9053   17.0254 H       1  UNL1        0.0278
     56 H           3.5584   26.5695   16.6650 H       1  UNL1        0.0278
     57 H           4.3070   25.7014   18.0107 H       1  UNL1        0.0278
     58 C           6.7607   26.1186   12.8911 C.3     1  UNL1       -0.0396
     59 H           5.8784   26.4756   12.3627 H       1  UNL1        0.0278
     60 H           7.3568   25.5179   12.2072 H       1  UNL1        0.0278
     61 H           7.3457   26.9915   13.1847 H       1  UNL1        0.0278
     62 C           8.6868   18.8899   19.3258 C.ar    1  UNL1       -0.0147
     63 C           9.9071   18.7519   19.9838 C.ar    1  UNL1       -0.0535
     64 H          10.8220   18.7620   19.4068 H       1  UNL1        0.0624
     65 C           9.9412   18.5959   21.3556 C.ar    1  UNL1       -0.0611
     66 H          10.8883   18.4824   21.8630 H       1  UNL1        0.0618
     67 C           8.7604   18.5919   22.0830 C.ar    1  UNL1       -0.0617
     68 H           8.7878   18.4728   23.1561 H       1  UNL1        0.0618
     69 C           7.5463   18.7459   21.4346 C.ar    1  UNL1       -0.0611
     70 H           6.6272   18.7478   22.0026 H       1  UNL1        0.0618
     71 C           7.5058   18.9005   20.0604 C.ar    1  UNL1       -0.0535
     72 H           6.5591   19.0244   19.5517 H       1  UNL1        0.0624
@<TRIPOS>BOND
     1    27    25    1
     2    32    29    1
     3    21    20    1
     4    60    58    1
     5    59    58    1
     6    29    30    1
     7    29    22    1
     8    29    31    1
     9    25    26    1
    10    25    19    1
    11    25    28    1
    12    20    22   ar
    13    20    19   ar
    14    22    23   ar
    15    19    17   ar
    16    58    61    1
    17    58    51    1
    18    23    24    1
    19    23    16   ar
    20    17    18    1
    21    17    16   ar
    22    53    52    1
    23    16     2    1
    24    51    52   ar
    25    51    49   ar
    26    15    14    1
    27    52    45   ar
    28     7     6    1
    29     2    14    1
    30    50    49    1
    31    49    48   ar
    32    14     5    1
    33     6     5   ar
    34     6     8   ar
    35    45     3    1
    36    45    46   ar
    37     9     8    1
    38    38    37    1
    39     3    43    1
    40     5     4   ar
    41    36    35    1
    42     8    10   ar
    43    37    35   ar
    44    37    39   ar
    45    48    46   ar
    46    48    54    1
    47    35    34   ar
    48    40    39    1
    49    46    47    1
    50    39    41   ar
    51    56    54    1
    52    34    43    1
    53    34    33   ar
    54    43    44    1
    55    41    33   ar
    56    41    42    1
    57     4    12   ar
    58     4     1    1
    59    54    55    1
    60    54    57    1
    61    33     1    1
    62    10    12   ar
    63    10    11    1
    64    12    13    1
    65     1    62    1
    66    62    63   ar
    67    62    71   ar
    68    64    63    1
    69    72    71    1
    70    63    65   ar
    71    71    69   ar
    72    65    66    1
    73    65    67   ar
    74    69    70    1
    75    69    67   ar
    76    67    68    1
