@<TRIPOS>MOLECULE
3
 27 26 0 0 0
SMALL
GASTEIGER

@<TRIPOS>ATOM
      1 SI          1.2943    6.3532    2.3837 Si      1  UNL1        0.0000
      2 SI          2.0436    5.8243    5.3037 Si      1  UNL1        0.0000
      3 N           1.0770    5.5393    3.8968 N.3     1  UNL1        0.0000
      4 C           0.9140    8.2211    2.5831 C.3     1  UNL1        0.0000
      5 C           0.0527    5.5453    1.1868 C.3     1  UNL1        0.0000
      6 C           3.0389    6.2199    1.6079 C.3     1  UNL1        0.0000
      7 C           3.9167    5.9932    4.9535 C.3     1  UNL1        0.0000
      8 C           1.8084    4.2701    6.3952 C.3     1  UNL1        0.0000
      9 C           1.5217    7.4100    6.2361 C.3     1  UNL1        0.0000
     10 H           1.7227    8.7305    3.0968 H       1  UNL1        0.0000
     11 H           0.0120    8.3659    3.1689 H       1  UNL1        0.0000
     12 H           0.7739    8.7114    1.6250 H       1  UNL1        0.0000
     13 H           0.5125    4.7586    0.6026 H       1  UNL1        0.0000
     14 H          -0.3676    6.2634    0.4930 H       1  UNL1        0.0000
     15 H          -0.7600    5.1061    1.7564 H       1  UNL1        0.0000
     16 H           3.7447    6.8869    2.0888 H       1  UNL1        0.0000
     17 H           3.0051    6.4814    0.5548 H       1  UNL1        0.0000
     18 H           3.4305    5.2128    1.6854 H       1  UNL1        0.0000
     19 H           4.2819    5.2010    4.3099 H       1  UNL1        0.0000
     20 H           4.4829    5.9547    5.8790 H       1  UNL1        0.0000
     21 H           4.1415    6.9384    4.4725 H       1  UNL1        0.0000
     22 H           0.9523    3.7061    6.0364 H       1  UNL1        0.0000
     23 H           1.6296    4.5284    7.4324 H       1  UNL1        0.0000
     24 H           2.6780    3.6218    6.3648 H       1  UNL1        0.0000
     25 H           1.8813    8.2967    5.7243 H       1  UNL1        0.0000
     26 H           1.9212    7.4299    7.2452 H       1  UNL1        0.0000
     27 H           0.4428    7.4800    6.3005 H       1  UNL1        0.0000
@<TRIPOS>BOND
     1    14     5    1
     2    17     6    1
     3    13     5    1
     4     5    15    1
     5     5     1    1
     6     6    18    1
     7     6    16    1
     8     6     1    1
     9    12     4    1
    10     1     4    1
    11     1     3    1
    12     4    10    1
    13     4    11    1
    14     3     2    1
    15    19     7    1
    16    21     7    1
    17     7     2    1
    18     7    20    1
    19     2     9    1
    20     2     8    1
    21    25     9    1
    22    22     8    1
    23     9    27    1
    24     9    26    1
    25    24     8    1
    26     8    23    1
