@<TRIPOS>MOLECULE
3
 27 26 0 0 0
SMALL
GASTEIGER

@<TRIPOS>ATOM
      1 SI         -2.7038    6.3459    5.8825 Si      1  UNL1        0.0000
      2 SI         -3.4543    5.8164    2.9647 Si      1  UNL1        0.0000
      3 N          -2.4893    5.5276    4.3716 N.3     1  UNL1        0.0000
      4 C          -2.3177    8.2121    5.6787 C.3     1  UNL1        0.0000
      5 C          -1.4641    5.5396    7.0825 C.3     1  UNL1        0.0000
      6 C          -4.4487    6.2188    6.6586 C.3     1  UNL1        0.0000
      7 C          -5.3280    5.9833    3.3131 C.3     1  UNL1        0.0000
      8 C          -3.2172    4.2660    1.8683 C.3     1  UNL1        0.0000
      9 C          -2.9325    7.4053    2.0374 C.3     1  UNL1        0.0000
     10 H          -3.1249    8.7231    5.1643 H       1  UNL1        0.0000
     11 H          -1.4155    8.3520    5.0918 H       1  UNL1        0.0000
     12 H          -2.1752    8.7044    6.6355 H       1  UNL1        0.0000
     13 H          -1.9242    4.7518    7.6650 H       1  UNL1        0.0000
     14 H          -1.0474    6.2584    7.7778 H       1  UNL1        0.0000
     15 H          -0.6490    5.1024    6.5151 H       1  UNL1        0.0000
     16 H          -5.1529    6.8864    6.1760 H       1  UNL1        0.0000
     17 H          -4.4143    6.4827    7.7111 H       1  UNL1        0.0000
     18 H          -4.8427    5.2125    6.5835 H       1  UNL1        0.0000
     19 H          -5.6932    5.1900    3.9554 H       1  UNL1        0.0000
     20 H          -5.8932    5.9455    2.3870 H       1  UNL1        0.0000
     21 H          -5.5541    6.9277    3.7951 H       1  UNL1        0.0000
     22 H          -2.3607    3.7019    2.2254 H       1  UNL1        0.0000
     23 H          -3.0386    4.5277    0.8319 H       1  UNL1        0.0000
     24 H          -4.0862    3.6168    1.8966 H       1  UNL1        0.0000
     25 H          -3.3005    8.2899    2.5467 H       1  UNL1        0.0000
     26 H          -3.3234    7.4242    1.0250 H       1  UNL1        0.0000
     27 H          -1.8534    7.4803    1.9822 H       1  UNL1        0.0000
@<TRIPOS>BOND
     1    23     8    1
     2    26     9    1
     3     8    24    1
     4     8    22    1
     5     8     2    1
     6    27     9    1
     7     9    25    1
     8     9     2    1
     9    20     7    1
    10     2     7    1
    11     2     3    1
    12     7    21    1
    13     7    19    1
    14     3     1    1
    15    11     4    1
    16    10     4    1
    17     4     1    1
    18     4    12    1
    19     1     6    1
    20     1     5    1
    21    16     6    1
    22    15     5    1
    23    18     6    1
    24     6    17    1
    25     5    13    1
    26     5    14    1
