@<TRIPOS>MOLECULE
3
 27 26 0 0 0
SMALL
GASTEIGER

@<TRIPOS>ATOM
      1 SI          8.4033    6.6720    1.6857 Si      1  UNL1        0.0000
      2 SI          6.0578    5.0331    0.6395 Si      1  UNL1        0.0000
      3 N           7.7350    5.2632    0.9477 N.3     1  UNL1        0.0000
      4 C          10.2829    6.6811    1.3276 C.3     1  UNL1        0.0000
      5 H          10.8650    6.5632    2.2350 H       1  UNL1        0.0000
      6 H          10.5783    7.6225    0.8780 H       1  UNL1        0.0000
      7 H          10.5661    5.8877    0.6385 H       1  UNL1        0.0000
      8 C           7.6755    8.3018    1.0002 C.3     1  UNL1        0.0000
      9 H           7.7987    8.3677   -0.0757 H       1  UNL1        0.0000
     10 H           8.1628    9.1653    1.4424 H       1  UNL1        0.0000
     11 H           6.6150    8.3803    1.2120 H       1  UNL1        0.0000
     12 C           8.1576    6.7008    3.5860 C.3     1  UNL1        0.0000
     13 H           7.1067    6.7688    3.8415 H       1  UNL1        0.0000
     14 H           8.6571    7.5598    4.0229 H       1  UNL1        0.0000
     15 H           8.5540    5.8108    4.0620 H       1  UNL1        0.0000
     16 C           5.4924    5.7450   -1.0466 C.3     1  UNL1        0.0000
     17 H           5.5690    6.8273   -1.0455 H       1  UNL1        0.0000
     18 H           4.4582    5.4909   -1.2589 H       1  UNL1        0.0000
     19 H           6.0997    5.3779   -1.8668 H       1  UNL1        0.0000
     20 C           4.9398    5.8115    1.9781 C.3     1  UNL1        0.0000
     21 H           5.1734    5.4211    2.9627 H       1  UNL1        0.0000
     22 H           3.8952    5.5953    1.7774 H       1  UNL1        0.0000
     23 H           5.0512    6.8886    2.0163 H       1  UNL1        0.0000
     24 C           5.6937    3.1531    0.6924 C.3     1  UNL1        0.0000
     25 H           6.6037    2.5762    0.5857 H       1  UNL1        0.0000
     26 H           5.0050    2.8593   -0.0928 H       1  UNL1        0.0000
     27 H           5.2359    2.8765    1.6357 H       1  UNL1        0.0000
@<TRIPOS>BOND
     1    19    16    1
     2    18    16    1
     3    16    17    1
     4    16     2    1
     5    26    24    1
     6     9     8    1
     7    25    24    1
     8     7     4    1
     9     2    24    1
    10     2     3    1
    11     2    20    1
    12    24    27    1
    13     6     4    1
    14     3     1    1
    15     8    11    1
    16     8    10    1
    17     8     1    1
    18     4     1    1
    19     4     5    1
    20     1    12    1
    21    22    20    1
    22    20    23    1
    23    20    21    1
    24    12    13    1
    25    12    14    1
    26    12    15    1
