@<TRIPOS>MOLECULE
3
 27 26 0 0 0
SMALL
GASTEIGER

@<TRIPOS>ATOM
      1 SI          9.4523   11.5966    6.2967 Si      1  UNL1        0.0000
      2 SI         10.5663    9.3754    4.5027 Si      1  UNL1        0.0000
      3 N           9.4989   10.6946    4.8265 N.3     1  UNL1        0.0000
      4 C           8.6291   13.2399    5.7992 C.3     1  UNL1        0.0000
      5 H           9.2695   13.7833    5.1181 H       1  UNL1        0.0000
      6 H           8.4264   13.8840    6.6463 H       1  UNL1        0.0000
      7 H           7.6922   13.0443    5.2807 H       1  UNL1        0.0000
      8 C           8.3813   10.6897    7.6038 C.3     1  UNL1        0.0000
      9 H           7.4157   10.4110    7.1973 H       1  UNL1        0.0000
     10 H           8.2109   11.3050    8.4816 H       1  UNL1        0.0000
     11 H           8.8714    9.7805    7.9342 H       1  UNL1        0.0000
     12 C          11.1280   11.9741    7.1345 C.3     1  UNL1        0.0000
     13 H          11.5908   11.0651    7.5039 H       1  UNL1        0.0000
     14 H          10.9998   12.6432    7.9802 H       1  UNL1        0.0000
     15 H          11.8208   12.4429    6.4445 H       1  UNL1        0.0000
     16 C          10.3724    7.9546    5.7737 C.3     1  UNL1        0.0000
     17 H          10.7611    8.2524    6.7421 H       1  UNL1        0.0000
     18 H          10.9179    7.0706    5.4592 H       1  UNL1        0.0000
     19 H           9.3341    7.6738    5.9107 H       1  UNL1        0.0000
     20 C          10.1410    8.8026    2.7379 C.3     1  UNL1        0.0000
     21 H           9.5980    7.8651    2.7246 H       1  UNL1        0.0000
     22 H          11.0362    8.6659    2.1419 H       1  UNL1        0.0000
     23 H           9.5314    9.5617    2.2562 H       1  UNL1        0.0000
     24 C          12.4152    9.8674    4.5281 C.3     1  UNL1        0.0000
     25 H          12.6059   10.7035    3.8641 H       1  UNL1        0.0000
     26 H          13.0385    9.0396    4.2026 H       1  UNL1        0.0000
     27 H          12.7441   10.1536    5.5208 H       1  UNL1        0.0000
@<TRIPOS>BOND
     1    22    20    1
     2    23    20    1
     3    21    20    1
     4    20     2    1
     5    25    24    1
     6    26    24    1
     7     2    24    1
     8     2     3    1
     9     2    16    1
    10    24    27    1
    11     3     1    1
    12     5     4    1
    13     7     4    1
    14    18    16    1
    15    16    19    1
    16    16    17    1
    17     4     1    1
    18     4     6    1
    19     1    12    1
    20     1     8    1
    21    15    12    1
    22    12    13    1
    23    12    14    1
    24     9     8    1
    25     8    11    1
    26     8    10    1
