@<TRIPOS>MOLECULE
3
 27 26 0 0 0
SMALL
GASTEIGER

@<TRIPOS>ATOM
      1 SI         12.2542    3.0982   -0.6060 Si      1  UNL1        0.0000
      2 SI         10.7610    5.1602   -2.1333 Si      1  UNL1        0.0000
      3 N          10.7693    3.8725   -0.9859 N.3     1  UNL1        0.0000
      4 C          12.0655    1.3348    0.1204 C.3     1  UNL1        0.0000
      5 H          11.7936    1.3311    1.1673 H       1  UNL1        0.0000
      6 H          13.0167    0.8186    0.0358 H       1  UNL1        0.0000
      7 H          11.3311    0.7449   -0.4124 H       1  UNL1        0.0000
      8 C          13.3642    2.7899   -2.1369 C.3     1  UNL1        0.0000
      9 H          12.9046    2.1025   -2.8397 H       1  UNL1        0.0000
     10 H          14.3157    2.3606   -1.8371 H       1  UNL1        0.0000
     11 H          13.5750    3.7105   -2.6677 H       1  UNL1        0.0000
     12 C          13.3442    4.1016    0.6201 C.3     1  UNL1        0.0000
     13 H          14.0823    4.6849    0.0793 H       1  UNL1        0.0000
     14 H          13.8839    3.4585    1.3097 H       1  UNL1        0.0000
     15 H          12.7556    4.7983    1.2069 H       1  UNL1        0.0000
     16 C          10.8179    4.5574   -3.9569 C.3     1  UNL1        0.0000
     17 H          11.6457    3.8806   -4.1278 H       1  UNL1        0.0000
     18 H          10.9427    5.4014   -4.6288 H       1  UNL1        0.0000
     19 H           9.9090    4.0420   -4.2478 H       1  UNL1        0.0000
     20 C          12.2155    6.3906   -1.9520 C.3     1  UNL1        0.0000
     21 H          12.2858    6.7884   -0.9460 H       1  UNL1        0.0000
     22 H          12.1081    7.2291   -2.6336 H       1  UNL1        0.0000
     23 H          13.1599    5.9080   -2.1746 H       1  UNL1        0.0000
     24 C           9.1528    6.1957   -2.0212 C.3     1  UNL1        0.0000
     25 H           8.5491    6.0786   -2.9142 H       1  UNL1        0.0000
     26 H           9.3913    7.2492   -1.9322 H       1  UNL1        0.0000
     27 H           8.5349    5.9333   -1.1660 H       1  UNL1        0.0000
@<TRIPOS>BOND
     1    18    16    1
     2    19    16    1
     3    17    16    1
     4    16     2    1
     5    25    24    1
     6     9     8    1
     7    11     8    1
     8    22    20    1
     9    23    20    1
    10     8    10    1
    11     8     1    1
    12     2    24    1
    13     2    20    1
    14     2     3    1
    15    24    26    1
    16    24    27    1
    17    20    21    1
    18     3     1    1
    19     1     4    1
    20     1    12    1
    21     7     4    1
    22     6     4    1
    23    13    12    1
    24     4     5    1
    25    12    15    1
    26    12    14    1
