@<TRIPOS>MOLECULE
3
 27 26 0 0 0
SMALL
GASTEIGER

@<TRIPOS>ATOM
      1 SI          9.5849   13.6890    2.0234 Si      1  UNL1        0.0000
      2 SI          8.5411   11.3862    0.3017 Si      1  UNL1        0.0000
      3 N           8.6669   12.2682    1.7586 N.3     1  UNL1        0.0000
      4 C           7.4176    9.8735    0.6440 C.3     1  UNL1        0.0000
      5 H           7.1258    9.8888    1.6884 H       1  UNL1        0.0000
      6 H           7.9262    8.9370    0.4472 H       1  UNL1        0.0000
      7 H           6.5212    9.8898    0.0337 H       1  UNL1        0.0000
      8 C           7.6932   12.3413   -1.1402 C.3     1  UNL1        0.0000
      9 H           6.6694   12.6216   -0.9084 H       1  UNL1        0.0000
     10 H           7.6684   11.7390   -2.0439 H       1  UNL1        0.0000
     11 H           8.2350   13.2515   -1.3709 H       1  UNL1        0.0000
     12 C          10.2249   10.8031   -0.4049 C.3     1  UNL1        0.0000
     13 H          10.6036   11.5100   -1.1352 H       1  UNL1        0.0000
     14 H          10.1519    9.8377   -0.8946 H       1  UNL1        0.0000
     15 H          10.9635   10.7204    0.3836 H       1  UNL1        0.0000
     16 C           8.4576   15.0350    2.8071 C.3     1  UNL1        0.0000
     17 H           7.9707   15.6234    2.0365 H       1  UNL1        0.0000
     18 H           9.0199   15.7222    3.4305 H       1  UNL1        0.0000
     19 H           7.6848   14.5819    3.4160 H       1  UNL1        0.0000
     20 C          10.2901   14.4964    0.4379 C.3     1  UNL1        0.0000
     21 H          10.8764   13.7848   -0.1310 H       1  UNL1        0.0000
     22 H          10.9325   15.3371    0.6809 H       1  UNL1        0.0000
     23 H           9.5003   14.8636   -0.2080 H       1  UNL1        0.0000
     24 C          11.0997   13.3405    3.1427 C.3     1  UNL1        0.0000
     25 H          10.8751   12.5270    3.8246 H       1  UNL1        0.0000
     26 H          11.3990   14.2045    3.7280 H       1  UNL1        0.0000
     27 H          11.9550   13.0423    2.5444 H       1  UNL1        0.0000
@<TRIPOS>BOND
     1    10     8    1
     2    11     8    1
     3     8     9    1
     4     8     2    1
     5    13    12    1
     6    14    12    1
     7    12     2    1
     8    12    15    1
     9    23    20    1
    10    21    20    1
    11     7     4    1
    12     2     4    1
    13     2     3    1
    14    20    22    1
    15    20     1    1
    16     6     4    1
    17     4     5    1
    18     3     1    1
    19     1    16    1
    20     1    24    1
    21    17    16    1
    22    27    24    1
    23    16    19    1
    24    16    18    1
    25    24    26    1
    26    24    25    1
