@<TRIPOS>MOLECULE
3
 27 26 0 0 0
SMALL
GASTEIGER

@<TRIPOS>ATOM
      1 SI         -0.6007   10.4554    4.3320 Si      1  UNL1        0.0000
      2 SI         -1.1733    8.5372    6.6596 Si      1  UNL1        0.0000
      3 N          -1.2832    9.0704    5.0506 N.3     1  UNL1        0.0000
      4 C          -1.1080   10.3462    2.4990 C.3     1  UNL1        0.0000
      5 H          -0.4310    9.7331    1.9169 H       1  UNL1        0.0000
      6 H          -1.1486   11.3229    2.0306 H       1  UNL1        0.0000
      7 H          -2.1030    9.9026    2.3989 H       1  UNL1        0.0000
      8 C           1.3219   10.4770    4.4405 C.3     1  UNL1        0.0000
      9 H           1.6547   11.1773    5.1980 H       1  UNL1        0.0000
     10 H           1.7781   10.7745    3.5012 H       1  UNL1        0.0000
     11 H           1.7171    9.5032    4.7094 H       1  UNL1        0.0000
     12 C          -1.1662   12.1636    4.9884 C.3     1  UNL1        0.0000
     13 H          -2.2045   12.3634    4.7507 H       1  UNL1        0.0000
     14 H          -0.5693   12.9680    4.5689 H       1  UNL1        0.0000
     15 H          -1.0617   12.2089    6.0665 H       1  UNL1        0.0000
     16 C          -0.1092    9.6914    7.7496 C.3     1  UNL1        0.0000
     17 H           0.8699    9.8452    7.3119 H       1  UNL1        0.0000
     18 H           0.0310    9.2822    8.7452 H       1  UNL1        0.0000
     19 H          -0.5744   10.6645    7.8570 H       1  UNL1        0.0000
     20 C          -2.8655    8.4214    7.5397 C.3     1  UNL1        0.0000
     21 H          -3.2714    9.4129    7.7071 H       1  UNL1        0.0000
     22 H          -2.7858    7.9309    8.5047 H       1  UNL1        0.0000
     23 H          -3.5816    7.8724    6.9434 H       1  UNL1        0.0000
     24 C          -0.2876    6.8237    6.7351 C.3     1  UNL1        0.0000
     25 H          -0.0954    6.4427    5.7367 H       1  UNL1        0.0000
     26 H          -0.8749    6.0827    7.2684 H       1  UNL1        0.0000
     27 H           0.6699    6.9021    7.2412 H       1  UNL1        0.0000
@<TRIPOS>BOND
     1     5     4    1
     2     6     4    1
     3     7     4    1
     4     4     1    1
     5    10     8    1
     6     1     8    1
     7     1    12    1
     8     1     3    1
     9     8    11    1
    10     8     9    1
    11    14    12    1
    12    13    12    1
    13    12    15    1
    14     3     2    1
    15    25    24    1
    16     2    24    1
    17     2    20    1
    18     2    16    1
    19    24    27    1
    20    24    26    1
    21    23    20    1
    22    17    16    1
    23    20    21    1
    24    20    22    1
    25    16    19    1
    26    16    18    1
