@<TRIPOS>MOLECULE
3
 27 26 0 0 0
SMALL
GASTEIGER

@<TRIPOS>ATOM
      1 SI         -4.7782   10.4555    2.9502 Si      1  UNL1        0.0000
      2 SI         -4.2056    8.5372    0.6227 Si      1  UNL1        0.0000
      3 N          -4.0960    9.0703    2.2317 N.3     1  UNL1        0.0000
      4 C          -4.2711   10.3463    4.7833 C.3     1  UNL1        0.0000
      5 H          -4.9482    9.7334    5.3654 H       1  UNL1        0.0000
      6 H          -4.2304   11.3230    5.2516 H       1  UNL1        0.0000
      7 H          -3.2762    9.9026    4.8835 H       1  UNL1        0.0000
      8 C          -6.7008   10.4774    2.8418 C.3     1  UNL1        0.0000
      9 H          -7.0334   11.1771    2.0836 H       1  UNL1        0.0000
     10 H          -7.1570   10.7758    3.7807 H       1  UNL1        0.0000
     11 H          -7.0963    9.5035    2.5736 H       1  UNL1        0.0000
     12 C          -4.2122   12.1635    2.2938 C.3     1  UNL1        0.0000
     13 H          -3.1742   12.3634    2.5325 H       1  UNL1        0.0000
     14 H          -4.8097   12.9680    2.7123 H       1  UNL1        0.0000
     15 H          -4.3157   12.2082    1.2155 H       1  UNL1        0.0000
     16 C          -5.2699    9.6913   -0.4673 C.3     1  UNL1        0.0000
     17 H          -6.2490    9.8451   -0.0296 H       1  UNL1        0.0000
     18 H          -5.4101    9.2820   -1.4629 H       1  UNL1        0.0000
     19 H          -4.8047   10.6644   -0.5748 H       1  UNL1        0.0000
     20 C          -2.5132    8.4216   -0.2572 C.3     1  UNL1        0.0000
     21 H          -2.1072    9.4132   -0.4238 H       1  UNL1        0.0000
     22 H          -2.5929    7.9318   -1.2226 H       1  UNL1        0.0000
     23 H          -1.7974    7.8720    0.3389 H       1  UNL1        0.0000
     24 C          -5.0913    6.8237    0.5470 C.3     1  UNL1        0.0000
     25 H          -5.2826    6.4420    1.5453 H       1  UNL1        0.0000
     26 H          -4.5043    6.0831    0.0127 H       1  UNL1        0.0000
     27 H          -6.0492    6.9021    0.0418 H       1  UNL1        0.0000
@<TRIPOS>BOND
     1    18    16    1
     2    22    20    1
     3    19    16    1
     4    16    17    1
     5    16     2    1
     6    21    20    1
     7    20    23    1
     8    20     2    1
     9    26    24    1
    10    27    24    1
    11    24     2    1
    12    24    25    1
    13     2     3    1
    14    15    12    1
    15     9     8    1
    16     3     1    1
    17    12    13    1
    18    12    14    1
    19    12     1    1
    20    11     8    1
    21     8     1    1
    22     8    10    1
    23     1     4    1
    24     4     7    1
    25     4     6    1
    26     4     5    1
