@<TRIPOS>MOLECULE
1
 21 21 0 0 0
SMALL
GASTEIGER

@<TRIPOS>ATOM
      1 N          -1.6967    7.4615    2.8576 N.pl3   1  UNL1       -0.2311
      2 N          -0.0005    6.0896    2.5850 N.pl3   1  UNL1       -0.3072
      3 C          -0.4046    7.3000    3.0208 C.3     1  UNL1        0.1438
      4 H           0.2119    8.0302    3.4881 H       1  UNL1        0.0762
      5 C          -2.1578    6.3181    2.2936 C.2     1  UNL1        0.0274
      6 H          -3.1865    6.2145    2.0419 H       1  UNL1        0.0811
      7 C          -1.1176    5.4578    2.1131 C.2     1  UNL1        0.0097
      8 H          -1.0939    4.4743    1.6932 H       1  UNL1        0.0794
      9 C           1.3432    5.5255    2.6103 C.3     1  UNL1        0.0279
     10 C           2.3184    6.5275    3.2266 C.3     1  UNL1       -0.0441
     11 H           2.3534    7.4439    2.6439 H       1  UNL1        0.0250
     12 H           3.3153    6.0944    3.2440 H       1  UNL1        0.0250
     13 H           2.0311    6.7683    4.2466 H       1  UNL1        0.0250
     14 C           1.7676    5.2102    1.1717 C.3     1  UNL1       -0.0441
     15 H           1.1111    4.4696    0.7233 H       1  UNL1        0.0250
     16 H           2.7824    4.8219    1.1586 H       1  UNL1        0.0250
     17 H           1.7330    6.1121    0.5652 H       1  UNL1        0.0250
     18 C           1.3179    4.2496    3.4591 C.3     1  UNL1       -0.0441
     19 H           0.9779    4.4779    4.4665 H       1  UNL1        0.0250
     20 H           2.3151    3.8221    3.5184 H       1  UNL1        0.0250
     21 H           0.6507    3.5067    3.0305 H       1  UNL1        0.0250
@<TRIPOS>BOND
     1    17    14    1
     2    15    14    1
     3    16    14    1
     4    14     9    1
     5     8     7    1
     6     6     5    1
     7     7     5    2
     8     7     2    1
     9     5     1    1
    10     2     9    1
    11     2     3    1
    12     9    10    1
    13     9    18    1
    14    11    10    1
    15     1     3    1
    16     3     4    1
    17    21    18    1
    18    10    12    1
    19    10    13    1
    20    18    20    1
    21    18    19    1
