@<TRIPOS>MOLECULE
1
 21 21 0 0 0
SMALL
GASTEIGER

@<TRIPOS>ATOM
      1 N          -3.6823    7.4616    4.4249 N.pl3   1  UNL1       -0.2311
      2 N          -5.3785    6.0896    4.6973 N.pl3   1  UNL1       -0.3072
      3 C          -4.9745    7.3000    4.2615 C.3     1  UNL1        0.1438
      4 H          -5.5910    8.0301    3.7942 H       1  UNL1        0.0762
      5 C          -3.2213    6.3181    4.9889 C.2     1  UNL1        0.0274
      6 H          -2.1926    6.2145    5.2406 H       1  UNL1        0.0811
      7 C          -4.2615    5.4578    5.1693 C.2     1  UNL1        0.0097
      8 H          -4.2852    4.4743    5.5893 H       1  UNL1        0.0794
      9 C          -6.7222    5.5255    4.6718 C.3     1  UNL1        0.0279
     10 C          -7.6973    6.5274    4.0553 C.3     1  UNL1       -0.0441
     11 H          -7.7324    7.4438    4.6380 H       1  UNL1        0.0250
     12 H          -8.6942    6.0943    4.0377 H       1  UNL1        0.0250
     13 H          -7.4098    6.7682    3.0353 H       1  UNL1        0.0250
     14 C          -7.1469    5.2102    6.1104 C.3     1  UNL1       -0.0441
     15 H          -6.4904    4.4696    6.5590 H       1  UNL1        0.0250
     16 H          -8.1616    4.8218    6.1234 H       1  UNL1        0.0250
     17 H          -7.1124    6.1121    6.7169 H       1  UNL1        0.0250
     18 C          -6.6966    4.2495    3.8231 C.3     1  UNL1       -0.0441
     19 H          -6.3565    4.4778    2.8157 H       1  UNL1        0.0250
     20 H          -7.6938    3.8220    3.7637 H       1  UNL1        0.0250
     21 H          -6.0296    3.5066    4.2519 H       1  UNL1        0.0250
@<TRIPOS>BOND
     1    19    18    1
     2    13    10    1
     3    20    18    1
     4     4     3    1
     5    18    21    1
     6    18     9    1
     7    12    10    1
     8    10    11    1
     9    10     9    1
    10     3     1    1
    11     3     2    1
    12     1     5    1
    13     9     2    1
    14     9    14    1
    15     2     7    1
    16     5     7    2
    17     5     6    1
    18     7     8    1
    19    14    16    1
    20    14    15    1
    21    14    17    1
