@<TRIPOS>MOLECULE
1
 27 26 0 0 0
SMALL
GASTEIGER

@<TRIPOS>ATOM
      1 N           6.7189   19.7706    7.3929 N.3     1  UNL1        0.0000
      2 SI          5.7885   20.6904    8.5189 Si      1  UNL1        0.0000
      3 SI          7.7251   20.5437    6.2254 Si      1  UNL1        0.0000
      4 C           5.0283   22.3126    7.8390 C.3     1  UNL1        0.0000
      5 C           4.3070   19.6309    9.1347 C.3     1  UNL1        0.0000
      6 C           6.8316   21.2005   10.0485 C.3     1  UNL1        0.0000
      7 C           8.9777   19.2616    5.5297 C.3     1  UNL1        0.0000
      8 C           8.7817   21.9849    6.9083 C.3     1  UNL1        0.0000
      9 C           6.7405   21.1674    4.7048 C.3     1  UNL1        0.0000
     10 H           4.4432   22.8240    8.5971 H       1  UNL1        0.0000
     11 H           5.8042   22.9937    7.5085 H       1  UNL1        0.0000
     12 H           4.3760   22.1252    6.9919 H       1  UNL1        0.0000
     13 H           4.2816   19.5906   10.2187 H       1  UNL1        0.0000
     14 H           3.3627   20.0545    8.8067 H       1  UNL1        0.0000
     15 H           4.3590   18.5991    8.7705 H       1  UNL1        0.0000
     16 H           6.2395   21.7828   10.7473 H       1  UNL1        0.0000
     17 H           7.6787   21.8079    9.7504 H       1  UNL1        0.0000
     18 H           7.2163   20.3392   10.5853 H       1  UNL1        0.0000
     19 H           9.4942   19.6707    4.6672 H       1  UNL1        0.0000
     20 H           9.7335   18.9800    6.2568 H       1  UNL1        0.0000
     21 H           8.4591   18.3588    5.2052 H       1  UNL1        0.0000
     22 H           9.4374   22.3904    6.1448 H       1  UNL1        0.0000
     23 H           8.1507   22.7909    7.2629 H       1  UNL1        0.0000
     24 H           9.4014   21.6650    7.7390 H       1  UNL1        0.0000
     25 H           7.3896   21.5558    3.9257 H       1  UNL1        0.0000
     26 H           6.0483   21.9562    4.9784 H       1  UNL1        0.0000
     27 H           6.1625   20.3481    4.2839 H       1  UNL1        0.0000
@<TRIPOS>BOND
     1    25     9    1
     2    27     9    1
     3    19     7    1
     4     9    26    1
     5     9     3    1
     6    21     7    1
     7     7     3    1
     8     7    20    1
     9    22     8    1
    10     3     8    1
    11     3     1    1
    12     8    23    1
    13     8    24    1
    14    12     4    1
    15     1     2    1
    16    11     4    1
    17     4     2    1
    18     4    10    1
    19     2     5    1
    20     2     6    1
    21    15     5    1
    22    14     5    1
    23     5    13    1
    24    17     6    1
    25     6    18    1
    26     6    16    1
