@<TRIPOS>MOLECULE
1
 9 8 0 0 0
SMALL
GASTEIGER

@<TRIPOS>ATOM
      1 N           1.8324    1.2913    9.4419 N.3     1  UNL1       -0.2469
      2 C           0.3973    1.4489    9.5555 C.3     1  UNL1        0.0021
      3 H           0.1442    1.8720   10.5319 H       1  UNL1        0.0405
      4 H          -0.1162    0.4787    9.4404 H       1  UNL1        0.0405
      5 H           0.0110    2.1213    8.7721 H       1  UNL1        0.0405
      6 C           2.1481    0.6313    8.1963 C.3     1  UNL1        0.0021
      7 H           3.2266    0.5982    8.0274 H       1  UNL1        0.0405
      8 H           1.6817    1.1538    7.3444 H       1  UNL1        0.0405
      9 H           1.7629   -0.4045    8.1876 H       1  UNL1        0.0405
@<TRIPOS>BOND
     1     8     6    1
     2     7     6    1
     3     9     6    1
     4     6     1    1
     5     5     2    1
     6     4     2    1
     7     1     2    1
     8     2     3    1
