@<TRIPOS>MOLECULE
1
 9 8 0 0 0
SMALL
GASTEIGER

@<TRIPOS>ATOM
      1 N           2.0132    1.1466   12.2059 N.3     1  UNL1       -0.2469
      2 C           2.1761    1.5758   13.5724 C.3     1  UNL1        0.0021
      3 H           2.4786    2.6248   13.6017 H       1  UNL1        0.0405
      4 H           2.9353    0.9685   14.1014 H       1  UNL1        0.0405
      5 H           1.2336    1.4644   14.1363 H       1  UNL1        0.0405
      6 C           1.6692   -0.2548   12.1666 C.3     1  UNL1        0.0021
      7 H           1.6055   -0.6026   11.1319 H       1  UNL1        0.0405
      8 H           0.6986   -0.4368   12.6591 H       1  UNL1        0.0405
      9 H           2.4206   -0.8690   12.6985 H       1  UNL1        0.0405
@<TRIPOS>BOND
     1     7     6    1
     2     6     1    1
     3     6     8    1
     4     6     9    1
     5     1     2    1
     6     2     3    1
     7     2     4    1
     8     2     5    1
