@<TRIPOS>MOLECULE
4
 63 66 0 0 0
SMALL
GASTEIGER

@<TRIPOS>ATOM
      1 P           0.5455    4.6852   12.6688 P.3     1  UNL1        0.0000
      2 SI          2.2062    7.1974   17.1808 Si      1  UNL1        0.0000
      3 N           1.1270    6.1644   14.8318 N.ar    1  UNL1        0.0000
      4 N           2.0727    4.3233   12.7967 N.pl3   1  UNL1        0.0000
      5 C           0.2326    6.0270   13.8558 C.ar    1  UNL1        0.0000
      6 C          -0.9080    6.8071   13.7387 C.ar    1  UNL1        0.0000
      7 H          -1.5947    6.6341   12.9218 H       1  UNL1        0.0000
      8 C          -1.1193    7.7985   14.6819 C.ar    1  UNL1        0.0000
      9 H          -1.9854    8.4422   14.6238 H       1  UNL1        0.0000
     10 C          -0.1938    7.9360   15.7027 C.ar    1  UNL1        0.0000
     11 H          -0.3286    8.6898   16.4616 H       1  UNL1        0.0000
     12 C           0.9199    7.1015   15.7652 C.ar    1  UNL1        0.0000
     13 C          -0.0266    5.3603   11.0587 C.ar    1  UNL1        0.0000
     14 C          -1.1200    4.8738   10.3524 C.ar    1  UNL1        0.0000
     15 H          -1.7134    4.0666   10.7582 H       1  UNL1        0.0000
     16 C          -1.4539    5.4312    9.1301 C.ar    1  UNL1        0.0000
     17 H          -2.3031    5.0490    8.5820 H       1  UNL1        0.0000
     18 C          -0.7058    6.4749    8.6107 C.ar    1  UNL1        0.0000
     19 H          -0.9710    6.9049    7.6561 H       1  UNL1        0.0000
     20 C           0.3802    6.9682    9.3171 C.ar    1  UNL1        0.0000
     21 H           0.9621    7.7856    8.9179 H       1  UNL1        0.0000
     22 C           0.7209    6.4118   10.5357 C.ar    1  UNL1        0.0000
     23 H           1.5647    6.7867   11.0990 H       1  UNL1        0.0000
     24 C          -0.6219    3.3315   13.0264 C.ar    1  UNL1        0.0000
     25 C          -0.5476    2.2136   12.1997 C.ar    1  UNL1        0.0000
     26 H           0.1316    2.2214   11.3573 H       1  UNL1        0.0000
     27 C          -1.3291    1.1045   12.4640 C.ar    1  UNL1        0.0000
     28 H          -1.2690    0.2374   11.8233 H       1  UNL1        0.0000
     29 C          -2.1823    1.1055   13.5566 C.ar    1  UNL1        0.0000
     30 H          -2.7918    0.2388   13.7652 H       1  UNL1        0.0000
     31 C          -2.2498    2.2133   14.3862 C.ar    1  UNL1        0.0000
     32 H          -2.9115    2.2090   15.2399 H       1  UNL1        0.0000
     33 C          -1.4671    3.3249   14.1279 C.ar    1  UNL1        0.0000
     34 H          -1.5110    4.1876   14.7783 H       1  UNL1        0.0000
     35 C           2.6494    3.0941   12.4335 C.ar    1  UNL1        0.0000
     36 C           2.5382    1.9686   13.2583 C.ar    1  UNL1        0.0000
     37 C           3.1525    0.7881   12.8620 C.ar    1  UNL1        0.0000
     38 H           3.0585   -0.0844   13.4933 H       1  UNL1        0.0000
     39 C           3.8857    0.7178   11.6934 C.ar    1  UNL1        0.0000
     40 H           4.3520   -0.2109   11.3991 H       1  UNL1        0.0000
     41 C           4.0466    1.8531   10.9178 C.ar    1  UNL1        0.0000
     42 H           4.6519    1.8151   10.0230 H       1  UNL1        0.0000
     43 C           3.4419    3.0446   11.2787 C.ar    1  UNL1        0.0000
     44 C           3.6356    4.2944   10.4761 C.3     1  UNL1        0.0000
     45 H           3.9304    5.1138   11.1387 H       1  UNL1        0.0000
     46 H           2.7046    4.5864    9.9872 H       1  UNL1        0.0000
     47 H           4.4017    4.1548    9.7172 H       1  UNL1        0.0000
     48 C           1.8284    2.0198   14.5788 C.3     1  UNL1        0.0000
     49 H           0.9567    1.3646   14.5846 H       1  UNL1        0.0000
     50 H           1.5118    3.0353   14.8100 H       1  UNL1        0.0000
     51 H           2.5064    1.6882   15.3642 H       1  UNL1        0.0000
     52 C           1.5507    8.4158   18.4968 C.3     1  UNL1        0.0000
     53 H           2.2215    8.4435   19.3489 H       1  UNL1        0.0000
     54 H           0.5729    8.1222   18.8658 H       1  UNL1        0.0000
     55 H           1.4740    9.4290   18.1146 H       1  UNL1        0.0000
     56 C           2.3855    5.4468   17.9032 C.3     1  UNL1        0.0000
     57 H           3.0827    5.4335   18.7353 H       1  UNL1        0.0000
     58 H           2.7628    4.7641   17.1471 H       1  UNL1        0.0000
     59 H           1.4366    5.0580   18.2620 H       1  UNL1        0.0000
     60 C           3.8413    7.8740   16.4766 C.3     1  UNL1        0.0000
     61 H           4.5320    8.1484   17.2677 H       1  UNL1        0.0000
     62 H           3.6799    8.7528   15.8579 H       1  UNL1        0.0000
     63 H           4.3415    7.1175   15.8613 H       1  UNL1        0.0000
@<TRIPOS>BOND
     1    19    18    1
     2    17    16    1
     3    18    16   ar
     4    18    20   ar
     5    21    20    1
     6    16    14   ar
     7    20    22   ar
     8    47    44    1
     9    46    44    1
    10    42    41    1
    11    14    15    1
    12    14    13   ar
    13    44    45    1
    14    44    43    1
    15    22    13   ar
    16    22    23    1
    17    41    43   ar
    18    41    39   ar
    19    13     1    1
    20    43    35   ar
    21    26    25    1
    22    40    39    1
    23    39    37   ar
    24    28    27    1
    25    25    27   ar
    26    25    24   ar
    27    35     4    1
    28    35    36   ar
    29    27    29   ar
    30     1     4    1
    31     1    24    1
    32     1     5    1
    33    37    36   ar
    34    37    38    1
    35     7     6    1
    36    24    33   ar
    37    36    48    1
    38    29    30    1
    39    29    31   ar
    40     6     5   ar
    41     6     8   ar
    42     5     3   ar
    43    33    31   ar
    44    33    34    1
    45    31    32    1
    46    48    49    1
    47    48    50    1
    48    48    51    1
    49     9     8    1
    50     8    10   ar
    51     3    12   ar
    52    10    12   ar
    53    10    11    1
    54    12     2    1
    55    62    60    1
    56    63    60    1
    57    60     2    1
    58    60    61    1
    59    58    56    1
    60     2    56    1
    61     2    52    1
    62    56    59    1
    63    56    57    1
    64    55    52    1
    65    52    54    1
    66    52    53    1
