@<TRIPOS>MOLECULE
3
 27 26 0 0 0
SMALL
GASTEIGER

@<TRIPOS>ATOM
      1 SI          6.8409   13.9774    6.0551 Si      1  UNL1        0.0000
      2 SI          5.0755   16.3766    5.8675 Si      1  UNL1        0.0000
      3 N           6.2425   15.3231    5.1569 N.3     1  UNL1        0.0000
      4 C           8.3000   13.2216    5.0771 C.3     1  UNL1        0.0000
      5 H           8.1131   13.2685    4.0019 H       1  UNL1        0.0000
      6 H           8.4473   12.1794    5.3453 H       1  UNL1        0.0000
      7 H           9.2336   13.7383    5.2741 H       1  UNL1        0.0000
      8 C           7.4486   14.3979    7.8175 C.3     1  UNL1        0.0000
      9 H           8.1277   15.2432    7.8260 H       1  UNL1        0.0000
     10 H           7.9651   13.5558    8.2671 H       1  UNL1        0.0000
     11 H           6.6079   14.6475    8.4559 H       1  UNL1        0.0000
     12 C           5.5918   12.5308    6.2892 C.3     1  UNL1        0.0000
     13 H           5.6255   11.8242    5.4659 H       1  UNL1        0.0000
     14 H           4.5726   12.8877    6.3792 H       1  UNL1        0.0000
     15 H           5.8214   11.9776    7.1948 H       1  UNL1        0.0000
     16 C           5.8299   17.6844    7.0513 C.3     1  UNL1        0.0000
     17 H           6.1754   17.2139    7.9654 H       1  UNL1        0.0000
     18 H           5.0916   18.4319    7.3251 H       1  UNL1        0.0000
     19 H           6.6764   18.2042    6.6144 H       1  UNL1        0.0000
     20 C           3.7094   15.5153    6.8938 C.3     1  UNL1        0.0000
     21 H           4.1396   14.9386    7.7045 H       1  UNL1        0.0000
     22 H           3.1065   14.8428    6.2909 H       1  UNL1        0.0000
     23 H           3.0388   16.2476    7.3323 H       1  UNL1        0.0000
     24 C           4.1680   17.2812    4.4424 C.3     1  UNL1        0.0000
     25 H           4.3688   16.8046    3.4825 H       1  UNL1        0.0000
     26 H           4.4627   18.3220    4.3597 H       1  UNL1        0.0000
     27 H           3.0934   17.2683    4.5949 H       1  UNL1        0.0000
@<TRIPOS>BOND
     1    25    24    1
     2     5     4    1
     3    26    24    1
     4    24    27    1
     5    24     2    1
     6     4     7    1
     7     4     6    1
     8     4     1    1
     9     3     2    1
    10     3     1    1
    11    13    12    1
    12     2    20    1
    13     2    16    1
    14     1    12    1
    15     1     8    1
    16    12    14    1
    17    12    15    1
    18    22    20    1
    19    19    16    1
    20    20    23    1
    21    20    21    1
    22    16    18    1
    23    16    17    1
    24     8     9    1
    25     8    10    1
    26     8    11    1
