@<TRIPOS>MOLECULE
1
 27 26 0 0 0
SMALL
GASTEIGER

@<TRIPOS>ATOM
      1 N           2.9196    1.2568   10.2121 N.3     1  UNL1        0.0000
      2 SI          3.0478    2.4249    8.9409 Si      1  UNL1        0.0000
      3 SI          4.0942    0.9361   11.4281 Si      1  UNL1        0.0000
      4 C           2.4241    4.1468    9.4982 C.3     1  UNL1        0.0000
      5 C           1.9734    1.7842    7.4887 C.3     1  UNL1        0.0000
      6 C           4.8382    2.5997    8.3115 C.3     1  UNL1        0.0000
      7 C           5.4928   -0.2099   10.8105 C.3     1  UNL1        0.0000
      8 C           3.0373   -0.0391   12.7128 C.3     1  UNL1        0.0000
      9 C           4.8876    2.4384   12.3031 C.3     1  UNL1        0.0000
     10 H           2.5308    4.8832    8.7073 H       1  UNL1        0.0000
     11 H           2.9774    4.5084   10.3604 H       1  UNL1        0.0000
     12 H           1.3712    4.1171    9.7741 H       1  UNL1        0.0000
     13 H           1.9432    2.5167    6.6887 H       1  UNL1        0.0000
     14 H           0.9471    1.6086    7.8050 H       1  UNL1        0.0000
     15 H           2.3704    0.8646    7.0685 H       1  UNL1        0.0000
     16 H           6.1355   -0.5090   11.6312 H       1  UNL1        0.0000
     17 H           5.1139   -1.1097   10.3383 H       1  UNL1        0.0000
     18 H           6.1091    0.3065   10.0848 H       1  UNL1        0.0000
     19 H           5.5336    2.1270   13.1182 H       1  UNL1        0.0000
     20 H           4.1326    3.1035   12.7113 H       1  UNL1        0.0000
     21 H           5.4926    3.0113   11.6082 H       1  UNL1        0.0000
     22 H           4.8831    3.2813    7.4702 H       1  UNL1        0.0000
     23 H           5.4929    2.9833    9.0846 H       1  UNL1        0.0000
     24 H           5.2359    1.6458    7.9857 H       1  UNL1        0.0000
     25 H           3.6450   -0.6724   13.3548 H       1  UNL1        0.0000
     26 H           2.4837    0.6426   13.3615 H       1  UNL1        0.0000
     27 H           2.3316   -0.6831   12.1817 H       1  UNL1        0.0000
@<TRIPOS>BOND
     1    13     5    1
     2    15     5    1
     3    22     6    1
     4     5    14    1
     5     5     2    1
     6    24     6    1
     7     6     2    1
     8     6    23    1
     9    10     4    1
    10     2     4    1
    11     2     1    1
    12     4    12    1
    13     4    11    1
    14    18     7    1
    15     1     3    1
    16    17     7    1
    17     7     3    1
    18     7    16    1
    19     3     9    1
    20     3     8    1
    21    21     9    1
    22    27     8    1
    23     9    20    1
    24     9    19    1
    25     8    25    1
    26     8    26    1
