@<TRIPOS>MOLECULE
3
 27 26 0 0 0
SMALL
GASTEIGER

@<TRIPOS>ATOM
      1 SI          6.4222   16.0391   13.6953 Si      1  UNL1        0.0000
      2 SI          6.5700   15.7296   16.7130 Si      1  UNL1        0.0000
      3 N           6.5028   15.0673   15.1168 N.3     1  UNL1        0.0000
      4 C           6.6794   14.9126   12.1672 C.3     1  UNL1        0.0000
      5 H           7.5733   14.2988   12.2571 H       1  UNL1        0.0000
      6 H           6.7845   15.5062   11.2637 H       1  UNL1        0.0000
      7 H           5.8262   14.2553   12.0211 H       1  UNL1        0.0000
      8 C           8.1840   15.2149   17.6204 C.3     1  UNL1        0.0000
      9 H           8.0734   14.2416   18.0869 H       1  UNL1        0.0000
     10 H           8.4284   15.9268   18.4031 H       1  UNL1        0.0000
     11 H           9.0333   15.1667   16.9456 H       1  UNL1        0.0000
     12 C           4.7167   16.8872   13.4460 C.3     1  UNL1        0.0000
     13 H           3.9378   16.1617   13.2285 H       1  UNL1        0.0000
     14 H           4.7451   17.5939   12.6226 H       1  UNL1        0.0000
     15 H           4.4181   17.4316   14.3354 H       1  UNL1        0.0000
     16 C           6.5222   17.6379   16.8162 C.3     1  UNL1        0.0000
     17 H           7.4600   18.0725   16.4923 H       1  UNL1        0.0000
     18 H           6.3449   17.9621   17.8365 H       1  UNL1        0.0000
     19 H           5.7362   18.0530   16.1970 H       1  UNL1        0.0000
     20 C           7.7694   17.3998   13.5844 C.3     1  UNL1        0.0000
     21 H           7.4456   18.3065   14.0810 H       1  UNL1        0.0000
     22 H           7.9938   17.6548   12.5533 H       1  UNL1        0.0000
     23 H           8.6936   17.0821   14.0562 H       1  UNL1        0.0000
     24 C           5.0990   15.1326   17.7939 C.3     1  UNL1        0.0000
     25 H           4.2100   15.7297   17.6170 H       1  UNL1        0.0000
     26 H           5.3377   15.2114   18.8503 H       1  UNL1        0.0000
     27 H           4.8486   14.0959   17.5901 H       1  UNL1        0.0000
@<TRIPOS>BOND
     1     6     4    1
     2     7     4    1
     3     4     5    1
     4     4     1    1
     5    22    20    1
     6    14    12    1
     7    13    12    1
     8    12     1    1
     9    12    15    1
    10    20     1    1
    11    20    23    1
    12    20    21    1
    13     1     3    1
    14     3     2    1
    15    19    16    1
    16    17    16    1
    17     2    16    1
    18     2     8    1
    19     2    24    1
    20    16    18    1
    21    11     8    1
    22    27    24    1
    23    25    24    1
    24     8     9    1
    25     8    10    1
    26    24    26    1
