@<TRIPOS>MOLECULE
1
 67 69 0 0 0
SMALL
GASTEIGER

@<TRIPOS>ATOM
      1 N           4.1167    4.5602    3.2257 N.3     1  UNL1       -0.2096
      2 H           4.0965    5.5879    3.2531 H       1  UNL1        0.1447
      3 N           5.1170    2.8794    1.8709 N.pl3   1  UNL1       -0.2653
      4 N           5.4178    4.9716    1.2641 N.pl3   1  UNL1       -0.2653
      5 C           4.8285    4.1681    2.2120 C.3     1  UNL1        0.2341
      6 C           5.8928    2.8914    0.7211 C.2     1  UNL1        0.0143
      7 H           6.2308    1.9786    0.2766 H       1  UNL1        0.0797
      8 C           6.0807    4.1695    0.3528 C.2     1  UNL1        0.0143
      9 H           6.6203    4.5886   -0.4710 H       1  UNL1        0.0797
     10 C           4.9169    1.6877    2.6257 C.ar    1  UNL1        0.0436
     11 C           5.9580    1.2381    3.4507 C.ar    1  UNL1       -0.0231
     12 C           5.8382   -0.0182    4.0275 C.ar    1  UNL1       -0.0565
     13 H           6.6325   -0.3968    4.6501 H       1  UNL1        0.0621
     14 C           4.7159   -0.7938    3.8076 C.ar    1  UNL1       -0.0611
     15 H           4.6435   -1.7760    4.2490 H       1  UNL1        0.0618
     16 C           3.6769   -0.3136    3.0294 C.ar    1  UNL1       -0.0565
     17 H           2.8092   -0.9340    2.8784 H       1  UNL1        0.0621
     18 C           3.7531    0.9339    2.4277 C.ar    1  UNL1       -0.0231
     19 C           7.1866    2.0822    3.7060 C.3     1  UNL1       -0.0197
     20 H           6.9602    3.1190    3.4346 H       1  UNL1        0.0344
     21 C           8.3564    1.6019    2.8408 C.3     1  UNL1       -0.0586
     22 H           8.5799    0.5593    3.0546 H       1  UNL1        0.0235
     23 H           9.2434    2.1954    3.0512 H       1  UNL1        0.0235
     24 H           8.1259    1.6936    1.7819 H       1  UNL1        0.0235
     25 C           7.5897    2.0703    5.1831 C.3     1  UNL1       -0.0586
     26 H           6.7305    2.2530    5.8231 H       1  UNL1        0.0235
     27 H           8.3265    2.8488    5.3678 H       1  UNL1        0.0235
     28 H           8.0319    1.1174    5.4612 H       1  UNL1        0.0235
     29 C           2.6450    1.4646    1.5456 C.3     1  UNL1       -0.0197
     30 H           2.5806    2.5493    1.7130 H       1  UNL1        0.0344
     31 C           1.2848    0.8530    1.8792 C.3     1  UNL1       -0.0586
     32 H           1.2341   -0.1872    1.5648 H       1  UNL1        0.0235
     33 H           0.5003    1.3930    1.3533 H       1  UNL1        0.0235
     34 H           1.0903    0.9142    2.9471 H       1  UNL1        0.0235
     35 C           2.9651    1.2057    0.0680 C.3     1  UNL1       -0.0586
     36 H           3.8557    1.7411   -0.2495 H       1  UNL1        0.0235
     37 H           2.1338    1.5309   -0.5536 H       1  UNL1        0.0235
     38 H           3.1237    0.1419   -0.0990 H       1  UNL1        0.0235
     39 C           5.5581    6.3812    1.3882 C.ar    1  UNL1        0.0436
     40 C           6.7596    6.8950    1.8949 C.ar    1  UNL1       -0.0231
     41 C           6.8620    8.2680    2.0613 C.ar    1  UNL1       -0.0565
     42 H           7.7693    8.6914    2.4631 H       1  UNL1        0.0621
     43 C           5.8145    9.1045    1.7224 C.ar    1  UNL1       -0.0611
     44 H           5.9095   10.1704    1.8623 H       1  UNL1        0.0618
     45 C           4.6454    8.5810    1.1932 C.ar    1  UNL1       -0.0565
     46 H           3.8503    9.2535    0.9177 H       1  UNL1        0.0621
     47 C           4.4923    7.2154    1.0192 C.ar    1  UNL1       -0.0231
     48 C           7.9232    6.0001    2.2565 C.3     1  UNL1       -0.0197
     49 H           7.6926    4.9688    1.9737 H       1  UNL1        0.0344
     50 C           9.1832    6.4086    1.4891 C.3     1  UNL1       -0.0586
     51 H           8.9899    6.4254    0.4184 H       1  UNL1        0.0235
     52 H           9.9833    5.6979    1.6841 H       1  UNL1        0.0235
     53 H           9.5241    7.3952    1.7906 H       1  UNL1        0.0235
     54 C           8.1719    6.0232    3.7658 C.3     1  UNL1       -0.0586
     55 H           8.4157    7.0274    4.1031 H       1  UNL1        0.0235
     56 H           9.0020    5.3660    4.0169 H       1  UNL1        0.0235
     57 H           7.2879    5.6871    4.3042 H       1  UNL1        0.0235
     58 C           3.2516    6.6186    0.3925 C.3     1  UNL1       -0.0197
     59 H           3.0216    5.6768    0.9052 H       1  UNL1        0.0344
     60 C           2.0243    7.5220    0.4982 C.3     1  UNL1       -0.0586
     61 H           1.8734    7.8563    1.5218 H       1  UNL1        0.0235
     62 H           1.1390    6.9731    0.1842 H       1  UNL1        0.0235
     63 H           2.1206    8.3918   -0.1474 H       1  UNL1        0.0235
     64 C           3.5339    6.3062   -1.0825 C.3     1  UNL1       -0.0586
     65 H           3.8154    7.2155   -1.6100 H       1  UNL1        0.0235
     66 H           2.6442    5.8947   -1.5537 H       1  UNL1        0.0235
     67 H           4.3405    5.5847   -1.1853 H       1  UNL1        0.0235
@<TRIPOS>BOND
     1    65    64    1
     2    66    64    1
     3    67    64    1
     4    64    58    1
     5    37    35    1
     6     9     8    1
     7    36    35    1
     8    63    60    1
     9    38    35    1
    10    35    29    1
    11    62    60    1
    12     7     6    1
    13     8     6    2
    14     8     4    1
    15    58    60    1
    16    58    59    1
    17    58    47    1
    18    51    50    1
    19    60    61    1
    20     6     3    1
    21    46    45    1
    22    47    45   ar
    23    47    39   ar
    24    45    43   ar
    25     4    39    1
    26     4     5    1
    27    33    31    1
    28    39    40   ar
    29    50    52    1
    30    50    53    1
    31    50    48    1
    32    29    30    1
    33    29    31    1
    34    29    18    1
    35    32    31    1
    36    43    44    1
    37    43    41   ar
    38    24    21    1
    39     3     5    1
    40     3    10    1
    41    31    34    1
    42    40    41   ar
    43    40    48    1
    44    49    48    1
    45    41    42    1
    46     5     1    1
    47    48    54    1
    48    18    10   ar
    49    18    16   ar
    50    10    11   ar
    51    21    23    1
    52    21    22    1
    53    21    19    1
    54    17    16    1
    55    16    14   ar
    56     1     2    1
    57    20    19    1
    58    11    19    1
    59    11    12   ar
    60    19    25    1
    61    54    56    1
    62    54    55    1
    63    54    57    1
    64    14    12   ar
    65    14    15    1
    66    12    13    1
    67    25    27    1
    68    25    28    1
    69    25    26    1
