@<TRIPOS>MOLECULE
1
 11 11 0 0 0
SMALL
GASTEIGER

@<TRIPOS>ATOM
      1 N           2.3898    2.2480    5.4207 N.pl3   1  UNL1       -0.2487
      2 C           3.5657    2.2075    6.0694 C.3     1  UNL1        0.0840
      3 C           3.8706    2.9931    7.1620 C.2     1  UNL1       -0.0600
      4 C           2.9353    3.9052    7.6279 C.2     1  UNL1       -0.0626
      5 C           1.7275    3.9812    6.9471 C.2     1  UNL1       -0.0466
      6 C           1.5029    3.1514    5.8688 C.2     1  UNL1        0.0121
      7 H           4.2995    1.5272    5.6717 H       1  UNL1        0.0584
      8 H           4.8353    2.8965    7.6359 H       1  UNL1        0.0592
      9 H           3.1419    4.5377    8.4766 H       1  UNL1        0.0615
     10 H           0.9645    4.6809    7.2494 H       1  UNL1        0.0630
     11 H           0.5732    3.2014    5.3260 H       1  UNL1        0.0797
@<TRIPOS>BOND
     1    11     6    1
     2     1     6    1
     3     1     2    1
     4     7     2    1
     5     6     5    2
     6     2     3    1
     7     5    10    1
     8     5     4    1
     9     3     4    2
    10     3     8    1
    11     4     9    1
