@<TRIPOS>MOLECULE
1
 44 43 0 0 0
SMALL
GASTEIGER

@<TRIPOS>ATOM
      1 N           4.6099    2.5113   -5.2973 N.pl3   1  UNL1        0.0000
      2 H           5.3513    1.8335   -5.4743 H       1  UNL1        0.0000
      3 C           4.6480    3.4831   -6.2304 C.2     1  UNL1        0.0000
      4 C           5.6586    3.3290   -7.3788 C.3     1  UNL1        0.0000
      5 C           5.4778    1.9736   -8.0783 C.3     1  UNL1        0.0000
      6 H           5.4686    1.1465   -7.3711 H       1  UNL1        0.0000
      7 H           6.2904    1.8066   -8.7841 H       1  UNL1        0.0000
      8 H           4.5400    1.9643   -8.6295 H       1  UNL1        0.0000
      9 C           7.0682    3.4143   -6.7711 C.3     1  UNL1        0.0000
     10 H           7.2187    2.6653   -5.9967 H       1  UNL1        0.0000
     11 H           7.2224    4.3966   -6.3284 H       1  UNL1        0.0000
     12 H           7.8231    3.2643   -7.5411 H       1  UNL1        0.0000
     13 C           5.5427    4.4155   -8.4514 C.3     1  UNL1        0.0000
     14 H           4.5523    4.4189   -8.9014 H       1  UNL1        0.0000
     15 H           6.2698    4.2225   -9.2388 H       1  UNL1        0.0000
     16 H           5.7480    5.3999   -8.0392 H       1  UNL1        0.0000
     17 C           3.8684    4.6145   -6.1274 C.2     1  UNL1        0.0000
     18 H           3.8515    5.3247   -6.9377 H       1  UNL1        0.0000
     19 C           3.1260    4.9799   -4.9763 C.2     1  UNL1        0.0000
     20 H           3.2543    4.3549   -4.0855 H       1  UNL1        0.0000
     21 C           2.3510    6.0833   -4.8594 C.2     1  UNL1        0.0000
     22 H           2.2445    6.7015   -5.7419 H       1  UNL1        0.0000
     23 SI          1.4736    6.5635   -3.2849 Si      1  UNL1        0.0000
     24 C           0.7939    8.3622   -3.4418 C.3     1  UNL1        0.0000
     25 C          -0.2284    8.4408   -4.5746 C.3     1  UNL1        0.0000
     26 H          -1.0767    7.7896   -4.3788 H       1  UNL1        0.0000
     27 H           0.2160    8.1377   -5.5190 H       1  UNL1        0.0000
     28 H          -0.6015    9.4595   -4.6863 H       1  UNL1        0.0000
     29 C           0.1147    8.7988   -2.1442 C.3     1  UNL1        0.0000
     30 H           0.8191    8.7866   -1.3154 H       1  UNL1        0.0000
     31 H          -0.7146    8.1384   -1.9014 H       1  UNL1        0.0000
     32 H          -0.2773    9.8122   -2.2388 H       1  UNL1        0.0000
     33 C           1.9338    9.3341   -3.7465 C.3     1  UNL1        0.0000
     34 H           2.6630    9.3408   -2.9394 H       1  UNL1        0.0000
     35 H           1.5521   10.3486   -3.8659 H       1  UNL1        0.0000
     36 H           2.4456    9.0532   -4.6635 H       1  UNL1        0.0000
     37 C           2.6889    6.4861   -1.7998 C.3     1  UNL1        0.0000
     38 H           2.1809    6.6198   -0.8489 H       1  UNL1        0.0000
     39 H           3.4535    7.2527   -1.8714 H       1  UNL1        0.0000
     40 H           3.1998    5.5283   -1.7779 H       1  UNL1        0.0000
     41 C           0.0397    5.3638   -2.8737 C.3     1  UNL1        0.0000
     42 H          -0.3318    5.4837   -1.8594 H       1  UNL1        0.0000
     43 H           0.3755    4.3378   -2.9984 H       1  UNL1        0.0000
     44 H          -0.7965    5.5025   -3.5517 H       1  UNL1        0.0000
@<TRIPOS>BOND
     1    15    13    1
     2    14    13    1
     3     7     5    1
     4     8     5    1
     5    13    16    1
     6    13     4    1
     7     5     4    1
     8     5     6    1
     9    12     9    1
    10     4     9    1
    11     4     3    1
    12    18    17    1
    13     9    11    1
    14     9    10    1
    15     3    17    2
    16     3     1    1
    17    17    19    1
    18    22    21    1
    19    27    25    1
    20     2     1    1
    21    19    21    2
    22    19    20    1
    23    21    23    1
    24    28    25    1
    25    36    33    1
    26    25    26    1
    27    25    24    1
    28    35    33    1
    29    33    24    1
    30    33    34    1
    31    44    41    1
    32    24    23    1
    33    24    29    1
    34    23    41    1
    35    23    37    1
    36    43    41    1
    37    41    42    1
    38    32    29    1
    39    29    31    1
    40    29    30    1
    41    39    37    1
    42    37    40    1
    43    37    38    1
