@<TRIPOS>MOLECULE
1
 44 43 0 0 0
SMALL
GASTEIGER

@<TRIPOS>ATOM
      1 N           0.9428    2.6610   -4.6577 N.pl3   1  UNL1        0.0000
      2 H           1.1867    3.4605   -5.2515 H       1  UNL1        0.0000
      3 C          -0.3287    2.3283   -4.9653 C.2     1  UNL1        0.0000
      4 C          -0.9891    1.2371   -4.1123 C.3     1  UNL1        0.0000
      5 C          -0.6099   -0.1230   -4.7145 C.3     1  UNL1        0.0000
      6 H           0.4755   -0.2176   -4.7528 H       1  UNL1        0.0000
      7 H          -1.0024   -0.2075   -5.7265 H       1  UNL1        0.0000
      8 H          -1.0206   -0.9365   -4.1173 H       1  UNL1        0.0000
      9 C          -0.4927    1.3107   -2.6623 C.3     1  UNL1        0.0000
     10 H           0.5881    1.1621   -2.6117 H       1  UNL1        0.0000
     11 H          -0.9767    0.5392   -2.0644 H       1  UNL1        0.0000
     12 H          -0.7429    2.2814   -2.2378 H       1  UNL1        0.0000
     13 C          -2.5180    1.3553   -4.0759 C.3     1  UNL1        0.0000
     14 H          -2.9645    1.1062   -5.0343 H       1  UNL1        0.0000
     15 H          -2.8169    2.3641   -3.8027 H       1  UNL1        0.0000
     16 H          -2.9196    0.6639   -3.3367 H       1  UNL1        0.0000
     17 C          -1.0316    2.9047   -6.0002 C.2     1  UNL1        0.0000
     18 H          -2.0556    2.6107   -6.1665 H       1  UNL1        0.0000
     19 C          -0.5335    3.8695   -6.9158 C.2     1  UNL1        0.0000
     20 H           0.4895    4.2076   -6.7970 H       1  UNL1        0.0000
     21 C          -1.2443    4.3906   -7.9414 C.2     1  UNL1        0.0000
     22 H          -2.2713    4.0578   -8.0484 H       1  UNL1        0.0000
     23 SI         -0.5770    5.5969   -9.2038 Si      1  UNL1        0.0000
     24 C           0.0548    4.6143  -10.7545 C.3     1  UNL1        0.0000
     25 C           1.2036    3.6944  -10.3409 C.3     1  UNL1        0.0000
     26 H           0.8808    3.0217   -9.5491 H       1  UNL1        0.0000
     27 H           2.0475    4.2741   -9.9740 H       1  UNL1        0.0000
     28 H           1.5440    3.0962  -11.1877 H       1  UNL1        0.0000
     29 C           0.5451    5.5507  -11.8583 C.3     1  UNL1        0.0000
     30 H          -0.2574    6.2022  -12.1958 H       1  UNL1        0.0000
     31 H           0.8997    4.9789  -12.7173 H       1  UNL1        0.0000
     32 H           1.3654    6.1712  -11.5047 H       1  UNL1        0.0000
     33 C          -1.0761    3.7506  -11.3122 C.3     1  UNL1        0.0000
     34 H          -1.9086    4.3696  -11.6377 H       1  UNL1        0.0000
     35 H          -1.4387    3.0618  -10.5525 H       1  UNL1        0.0000
     36 H          -0.7328    3.1674  -12.1679 H       1  UNL1        0.0000
     37 C           0.8665    6.6306   -8.5052 C.3     1  UNL1        0.0000
     38 H           1.2756    7.3137   -9.2434 H       1  UNL1        0.0000
     39 H           1.6737    5.9978   -8.1527 H       1  UNL1        0.0000
     40 H           0.5243    7.2236   -7.6635 H       1  UNL1        0.0000
     41 C          -1.9616    6.7980   -9.7408 C.3     1  UNL1        0.0000
     42 H          -1.6166    7.5113  -10.4826 H       1  UNL1        0.0000
     43 H          -2.3249    7.3623   -8.8881 H       1  UNL1        0.0000
     44 H          -2.8070    6.2646  -10.1625 H       1  UNL1        0.0000
@<TRIPOS>BOND
     1    31    29    1
     2    30    29    1
     3    36    33    1
     4    29    32    1
     5    29    24    1
     6    34    33    1
     7    33    24    1
     8    33    35    1
     9    28    25    1
    10    24    25    1
    11    24    23    1
    12    42    41    1
    13    25    27    1
    14    25    26    1
    15    44    41    1
    16    41    23    1
    17    41    43    1
    18    38    37    1
    19    23    37    1
    20    23    21    1
    21    37    39    1
    22    37    40    1
    23    22    21    1
    24    21    19    2
    25    19    20    1
    26    19    17    1
    27    18    17    1
    28    17     3    2
    29     7     5    1
    30     2     1    1
    31    14    13    1
    32     3     1    1
    33     3     4    1
    34     6     5    1
    35     5     8    1
    36     5     4    1
    37     4    13    1
    38     4     9    1
    39    13    15    1
    40    13    16    1
    41     9    10    1
    42     9    12    1
    43     9    11    1
