@<TRIPOS>MOLECULE
3
 27 26 0 0 0
SMALL
GASTEIGER

@<TRIPOS>ATOM
      1 SI          4.3759   -2.2527   12.5736 Si      1  UNL1        0.0000
      2 SI          4.3274   -3.4671    9.8447 Si      1  UNL1        0.0000
      3 N           3.6900   -2.3558   10.9923 N.3     1  UNL1        0.0000
      4 C           3.2767   -3.3511    8.2426 C.3     1  UNL1        0.0000
      5 H           3.3977   -4.2468    7.6410 H       1  UNL1        0.0000
      6 H           3.5745   -2.5075    7.6262 H       1  UNL1        0.0000
      7 H           2.2199   -3.2417    8.4761 H       1  UNL1        0.0000
      8 C           6.1394   -3.1087    9.3068 C.3     1  UNL1        0.0000
      9 H           6.2820   -3.2582    8.2405 H       1  UNL1        0.0000
     10 H           6.8261   -3.7737    9.8185 H       1  UNL1        0.0000
     11 H           6.4407   -2.0951    9.5459 H       1  UNL1        0.0000
     12 C           4.3394   -5.3013   10.4013 C.3     1  UNL1        0.0000
     13 H           4.6652   -5.9606    9.6023 H       1  UNL1        0.0000
     14 H           3.3633   -5.6404   10.7325 H       1  UNL1        0.0000
     15 H           5.0244   -5.4305   11.2325 H       1  UNL1        0.0000
     16 C           6.2885   -2.2771   12.6413 C.3     1  UNL1        0.0000
     17 H           6.7283   -1.4882   12.0410 H       1  UNL1        0.0000
     18 H           6.6742   -3.2207   12.2739 H       1  UNL1        0.0000
     19 H           6.6420   -2.1507   13.6596 H       1  UNL1        0.0000
     20 C           3.8582   -0.5629   13.3238 C.3     1  UNL1        0.0000
     21 H           2.9185   -0.1903   12.9115 H       1  UNL1        0.0000
     22 H           4.6199    0.1909   13.1490 H       1  UNL1        0.0000
     23 H           3.7319   -0.6435   14.3984 H       1  UNL1        0.0000
     24 C           3.8276   -3.6857   13.7307 C.3     1  UNL1        0.0000
     25 H           2.8218   -4.0270   13.5069 H       1  UNL1        0.0000
     26 H           3.8537   -3.3923   14.7757 H       1  UNL1        0.0000
     27 H           4.4891   -4.5384   13.6169 H       1  UNL1        0.0000
@<TRIPOS>BOND
     1     6     4    1
     2     5     4    1
     3     9     8    1
     4     4     7    1
     5     4     2    1
     6     8    11    1
     7     8    10    1
     8     8     2    1
     9    13    12    1
    10     2    12    1
    11     2     3    1
    12    12    14    1
    13    12    15    1
    14     3     1    1
    15    17    16    1
    16    18    16    1
    17     1    16    1
    18     1    20    1
    19     1    24    1
    20    16    19    1
    21    21    20    1
    22    22    20    1
    23    20    23    1
    24    25    24    1
    25    27    24    1
    26    24    26    1
