@<TRIPOS>MOLECULE
3
 27 26 0 0 0
SMALL
GASTEIGER

@<TRIPOS>ATOM
      1 SI         -0.1124   -0.2096   13.3765 Si      1  UNL1        0.0000
      2 SI          0.4961    2.0377   11.5552 Si      1  UNL1        0.0000
      3 N           0.6397    0.3667   11.9361 N.3     1  UNL1        0.0000
      4 C           0.5050    2.3561    9.6615 C.3     1  UNL1        0.0000
      5 H           1.4079    2.0004    9.1814 H       1  UNL1        0.0000
      6 H           0.4274    3.4212    9.4660 H       1  UNL1        0.0000
      7 H          -0.3401    1.8781    9.1763 H       1  UNL1        0.0000
      8 C           1.9364    3.0678   12.3087 C.3     1  UNL1        0.0000
      9 H           2.8933    2.5598   12.2386 H       1  UNL1        0.0000
     10 H           1.7494    3.2481   13.3617 H       1  UNL1        0.0000
     11 H           2.0377    4.0348   11.8249 H       1  UNL1        0.0000
     12 C          -1.1088    2.9121   12.1193 C.3     1  UNL1        0.0000
     13 H          -1.9864    2.4387   11.6921 H       1  UNL1        0.0000
     14 H          -1.1177    3.9553   11.8181 H       1  UNL1        0.0000
     15 H          -1.2140    2.8820   13.1973 H       1  UNL1        0.0000
     16 C          -2.0236   -0.3371   13.2519 C.3     1  UNL1        0.0000
     17 H          -2.4870    0.6227   13.4492 H       1  UNL1        0.0000
     18 H          -2.4308   -1.0484   13.9641 H       1  UNL1        0.0000
     19 H          -2.3280   -0.6473   12.2571 H       1  UNL1        0.0000
     20 C           0.5609   -1.9762   13.7182 C.3     1  UNL1        0.0000
     21 H          -0.2447   -2.6847   13.8863 H       1  UNL1        0.0000
     22 H           1.1961   -1.9922   14.5975 H       1  UNL1        0.0000
     23 H           1.1609   -2.3287   12.8702 H       1  UNL1        0.0000
     24 C           0.2819    0.8024   14.9532 C.3     1  UNL1        0.0000
     25 H          -0.1260    0.3305   15.8416 H       1  UNL1        0.0000
     26 H          -0.1378    1.7996   14.8899 H       1  UNL1        0.0000
     27 H           1.3522    0.9089   15.0954 H       1  UNL1        0.0000
@<TRIPOS>BOND
     1     7     4    1
     2     5     4    1
     3     6     4    1
     4     4     2    1
     5     2     3    1
     6     2    12    1
     7     2     8    1
     8    13    12    1
     9    14    12    1
    10    11     8    1
    11     3     1    1
    12    12    15    1
    13     9     8    1
    14    19    16    1
    15     8    10    1
    16    23    20    1
    17    16     1    1
    18    16    17    1
    19    16    18    1
    20     1    20    1
    21     1    24    1
    22    20    21    1
    23    20    22    1
    24    26    24    1
    25    24    27    1
    26    24    25    1
