@<TRIPOS>MOLECULE
1
 9 8 0 0 0
SMALL
GASTEIGER

@<TRIPOS>ATOM
      1 N           2.5714    0.5573    1.7063 N.3     1  UNL1       -0.2469
      2 C           2.0830    1.0944    2.9501 C.3     1  UNL1        0.0021
      3 H           1.0784    1.5635    2.8569 H       1  UNL1        0.0405
      4 H           2.7778    1.8488    3.3343 H       1  UNL1        0.0405
      5 H           1.9673    0.3076    3.7272 H       1  UNL1        0.0405
      6 C           1.6429   -0.4214    1.1818 C.3     1  UNL1        0.0021
      7 H           1.5498   -1.3050    1.8515 H       1  UNL1        0.0405
      8 H           1.9889   -0.7595    0.1966 H       1  UNL1        0.0405
      9 H           0.6143   -0.0169    1.0750 H       1  UNL1        0.0405
@<TRIPOS>BOND
     1     8     6    1
     2     9     6    1
     3     6     1    1
     4     6     7    1
     5     1     2    1
     6     3     2    1
     7     2     4    1
     8     2     5    1
