@<TRIPOS>MOLECULE
1
 9 8 0 0 0
SMALL
GASTEIGER

@<TRIPOS>ATOM
      1 N           5.3258    2.7377    0.7128 N.3     1  UNL1       -0.2469
      2 C           6.3140    2.9273   -0.3278 C.3     1  UNL1        0.0021
      3 H           6.3929    3.9938   -0.6349 H       1  UNL1        0.0405
      4 H           6.0393    2.3263   -1.2042 H       1  UNL1        0.0405
      5 H           7.3343    2.6329   -0.0034 H       1  UNL1        0.0405
      6 C           5.7196    3.4339    1.9103 C.3     1  UNL1        0.0021
      7 H           6.7144    3.1139    2.2923 H       1  UNL1        0.0405
      8 H           4.9810    3.2705    2.7024 H       1  UNL1        0.0405
      9 H           5.8086    4.5299    1.7455 H       1  UNL1        0.0405
@<TRIPOS>BOND
     1     4     2    1
     2     3     2    1
     3     2     5    1
     4     2     1    1
     5     1     6    1
     6     9     6    1
     7     6     7    1
     8     6     8    1
