@<TRIPOS>MOLECULE
3
 27 26 0 0 0
SMALL
GASTEIGER

@<TRIPOS>ATOM
      1 SI          7.7479    6.9948    3.8457 Si      1  UNL1        0.0000
      2 SI          5.9765    4.5605    4.4086 Si      1  UNL1        0.0000
      3 N           6.2082    6.2552    4.1339 N.3     1  UNL1        0.0000
      4 C           7.3964    8.8571    3.9977 C.3     1  UNL1        0.0000
      5 H           7.9584    9.4390    3.2772 H       1  UNL1        0.0000
      6 H           7.6388    9.2306    4.9843 H       1  UNL1        0.0000
      7 H           6.3360    9.0279    3.8151 H       1  UNL1        0.0000
      8 C           9.0682    6.4598    5.1189 C.3     1  UNL1        0.0000
      9 H          10.0033    6.9854    4.9547 H       1  UNL1        0.0000
     10 H           9.2689    5.3965    5.0504 H       1  UNL1        0.0000
     11 H           8.7408    6.6706    6.1309 H       1  UNL1        0.0000
     12 C           8.4306    6.6335    2.0962 C.3     1  UNL1        0.0000
     13 H           9.3827    7.1310    1.9367 H       1  UNL1        0.0000
     14 H           7.7426    6.9822    1.3330 H       1  UNL1        0.0000
     15 H           8.5846    5.5716    1.9382 H       1  UNL1        0.0000
     16 C           6.6069    4.0033    6.1337 C.3     1  UNL1        0.0000
     17 H           5.8393    3.4866    6.7007 H       1  UNL1        0.0000
     18 H           6.9440    4.8509    6.7167 H       1  UNL1        0.0000
     19 H           7.4462    3.3231    6.0329 H       1  UNL1        0.0000
     20 C           6.8492    3.3931    3.1731 C.3     1  UNL1        0.0000
     21 H           6.5979    2.3573    3.3819 H       1  UNL1        0.0000
     22 H           7.9274    3.4905    3.2541 H       1  UNL1        0.0000
     23 H           6.5756    3.5984    2.1450 H       1  UNL1        0.0000
     24 C           4.0765    4.3917    4.2845 C.3     1  UNL1        0.0000
     25 H           3.6219    4.0270    5.1990 H       1  UNL1        0.0000
     26 H           3.7877    3.7174    3.4876 H       1  UNL1        0.0000
     27 H           3.6540    5.3709    4.0502 H       1  UNL1        0.0000
@<TRIPOS>BOND
     1    14    12    1
     2    13    12    1
     3    15    12    1
     4    12     1    1
     5    23    20    1
     6    20    22    1
     7    20    21    1
     8    20     2    1
     9     5     4    1
    10    26    24    1
    11     7     4    1
    12     1     4    1
    13     1     3    1
    14     1     8    1
    15     4     6    1
    16    27    24    1
    17     3     2    1
    18    24     2    1
    19    24    25    1
    20     2    16    1
    21     9     8    1
    22    10     8    1
    23     8    11    1
    24    19    16    1
    25    16    17    1
    26    16    18    1
