@<TRIPOS>MOLECULE
3
 27 26 0 0 0
SMALL
GASTEIGER

@<TRIPOS>ATOM
      1 SI         -0.1393    2.2966    5.2674 Si      1  UNL1        0.0000
      2 SI          0.1880    5.3911    5.3825 Si      1  UNL1        0.0000
      3 N           0.1316    3.8071    6.0692 N.3     1  UNL1        0.0000
      4 C           0.1007    1.0127    6.6619 C.3     1  UNL1        0.0000
      5 H          -0.2310    0.0246    6.3641 H       1  UNL1        0.0000
      6 H          -0.4720    1.2994    7.5454 H       1  UNL1        0.0000
      7 H           1.1421    0.9311    6.9577 H       1  UNL1        0.0000
      8 C           1.0460    1.9743    3.8053 C.3     1  UNL1        0.0000
      9 H           1.0043    0.9356    3.4930 H       1  UNL1        0.0000
     10 H           2.0748    2.2049    4.0538 H       1  UNL1        0.0000
     11 H           0.7673    2.5851    2.9528 H       1  UNL1        0.0000
     12 C          -1.9066    2.0663    4.5592 C.3     1  UNL1        0.0000
     13 H          -1.9227    1.2523    3.8409 H       1  UNL1        0.0000
     14 H          -2.2439    2.9602    4.0470 H       1  UNL1        0.0000
     15 H          -2.6317    1.8331    5.3317 H       1  UNL1        0.0000
     16 C           1.6583    5.7076    4.2068 C.3     1  UNL1        0.0000
     17 H           1.5930    6.6971    3.7642 H       1  UNL1        0.0000
     18 H           1.6724    4.9854    3.3976 H       1  UNL1        0.0000
     19 H           2.6031    5.6399    4.7318 H       1  UNL1        0.0000
     20 C           0.2928    6.5050    6.9308 C.3     1  UNL1        0.0000
     21 H          -0.5434    7.1902    7.0004 H       1  UNL1        0.0000
     22 H           1.2050    7.0884    6.9415 H       1  UNL1        0.0000
     23 H           0.2872    5.8827    7.8297 H       1  UNL1        0.0000
     24 C          -1.3696    5.8098    4.3520 C.3     1  UNL1        0.0000
     25 H          -1.4168    6.8726    4.1363 H       1  UNL1        0.0000
     26 H          -2.2807    5.5365    4.8689 H       1  UNL1        0.0000
     27 H          -1.3540    5.2840    3.4027 H       1  UNL1        0.0000
@<TRIPOS>BOND
     1    11     8    1
     2    18    16    1
     3    27    24    1
     4     9     8    1
     5    17    16    1
     6     8    10    1
     7     8     1    1
     8    13    12    1
     9    14    12    1
    10    25    24    1
    11    16    19    1
    12    16     2    1
    13    24    26    1
    14    24     2    1
    15    12     1    1
    16    12    15    1
    17     1     3    1
    18     1     4    1
    19     2     3    1
    20     2    20    1
    21     5     4    1
    22     4     7    1
    23     4     6    1
    24    20    22    1
    25    20    21    1
    26    20    23    1
