@<TRIPOS>MOLECULE
3
 27 26 0 0 0
SMALL
GASTEIGER

@<TRIPOS>ATOM
      1 SI          4.1947    9.7149    1.6799 Si      1  UNL1        0.0000
      2 SI          3.4208    6.8492    1.2148 Si      1  UNL1        0.0000
      3 N           3.7852    8.1578    2.2786 N.3     1  UNL1        0.0000
      4 C           4.4022   10.9742    3.1035 C.3     1  UNL1        0.0000
      5 H           3.4473   11.2592    3.5311 H       1  UNL1        0.0000
      6 H           4.8768   11.8778    2.7358 H       1  UNL1        0.0000
      7 H           5.0210   10.5765    3.8952 H       1  UNL1        0.0000
      8 C           2.8143   10.4998    0.6010 C.3     1  UNL1        0.0000
      9 H           2.8190   11.5819    0.6909 H       1  UNL1        0.0000
     10 H           1.8305   10.1497    0.8951 H       1  UNL1        0.0000
     11 H           2.9450   10.2618   -0.4479 H       1  UNL1        0.0000
     12 C           5.8061    9.7244    0.6449 C.3     1  UNL1        0.0000
     13 H           6.0795   10.7256    0.3261 H       1  UNL1        0.0000
     14 H           5.6867    9.1173   -0.2465 H       1  UNL1        0.0000
     15 H           6.6371    9.3139    1.2077 H       1  UNL1        0.0000
     16 C           1.8868    5.8734    1.8329 C.3     1  UNL1        0.0000
     17 H           1.8186    4.9188    1.3214 H       1  UNL1        0.0000
     18 H           0.9721    6.4177    1.6212 H       1  UNL1        0.0000
     19 H           1.9045    5.6737    2.8965 H       1  UNL1        0.0000
     20 C           2.9162    7.3548   -0.5594 C.3     1  UNL1        0.0000
     21 H           2.7414    6.4717   -1.1664 H       1  UNL1        0.0000
     22 H           3.6890    7.9392   -1.0447 H       1  UNL1        0.0000
     23 H           2.0053    7.9411   -0.5651 H       1  UNL1        0.0000
     24 C           4.9054    5.6674    0.9835 C.3     1  UNL1        0.0000
     25 H           4.5914    4.6353    0.8720 H       1  UNL1        0.0000
     26 H           5.5654    5.7313    1.8400 H       1  UNL1        0.0000
     27 H           5.4802    5.9314    0.1016 H       1  UNL1        0.0000
@<TRIPOS>BOND
     1    21    20    1
     2    22    20    1
     3    23    20    1
     4    20     2    1
     5    11     8    1
     6    14    12    1
     7    27    24    1
     8    13    12    1
     9     8     9    1
    10     8    10    1
    11     8     1    1
    12    12    15    1
    13    12     1    1
    14    25    24    1
    15    24     2    1
    16    24    26    1
    17     2    16    1
    18     2     3    1
    19    17    16    1
    20    18    16    1
    21     1     3    1
    22     1     4    1
    23    16    19    1
    24     6     4    1
    25     4     5    1
    26     4     7    1
