@<TRIPOS>MOLECULE
3
 27 26 0 0 0
SMALL
GASTEIGER

@<TRIPOS>ATOM
      1 SI          4.8688    5.1756    9.9875 Si      1  UNL1        0.0000
      2 SI          5.4482    3.9237   12.6839 Si      1  UNL1        0.0000
      3 N           5.7742    4.0843   10.9836 N.3     1  UNL1        0.0000
      4 C           4.9240    4.6569    8.1419 C.3     1  UNL1        0.0000
      5 H           3.9343    4.3916    7.7846 H       1  UNL1        0.0000
      6 H           5.5749    3.8116    7.9583 H       1  UNL1        0.0000
      7 H           5.2800    5.4774    7.5286 H       1  UNL1        0.0000
      8 C           3.0182    5.1896   10.4675 C.3     1  UNL1        0.0000
      9 H           2.4629    5.8742    9.8337 H       1  UNL1        0.0000
     10 H           2.8807    5.5054   11.4950 H       1  UNL1        0.0000
     11 H           2.5676    4.2084   10.3650 H       1  UNL1        0.0000
     12 C           5.4792    6.9831   10.1056 C.3     1  UNL1        0.0000
     13 H           4.8660    7.6363    9.4915 H       1  UNL1        0.0000
     14 H           6.5052    7.0809    9.7701 H       1  UNL1        0.0000
     15 H           5.4317    7.3517   11.1247 H       1  UNL1        0.0000
     16 C           3.7788    3.0716   13.0911 C.3     1  UNL1        0.0000
     17 H           3.9216    2.2443   13.7784 H       1  UNL1        0.0000
     18 H           3.3041    2.6768   12.2024 H       1  UNL1        0.0000
     19 H           3.0882    3.7691   13.5533 H       1  UNL1        0.0000
     20 C           5.4086    5.5702   13.6601 C.3     1  UNL1        0.0000
     21 H           5.1566    5.3857   14.7000 H       1  UNL1        0.0000
     22 H           4.6585    6.2427   13.2569 H       1  UNL1        0.0000
     23 H           6.3604    6.0886   13.6426 H       1  UNL1        0.0000
     24 C           6.8788    2.8426   13.3095 C.3     1  UNL1        0.0000
     25 H           6.8086    2.6569   14.3746 H       1  UNL1        0.0000
     26 H           7.8331    3.3185   13.1099 H       1  UNL1        0.0000
     27 H           6.8723    1.8821   12.8034 H       1  UNL1        0.0000
@<TRIPOS>BOND
     1     7     4    1
     2     5     4    1
     3     6     4    1
     4     4     1    1
     5    13    12    1
     6    14    12    1
     7     9     8    1
     8     1    12    1
     9     1     8    1
    10     1     3    1
    11    12    15    1
    12    11     8    1
    13     8    10    1
    14     3     2    1
    15    18    16    1
    16     2    16    1
    17     2    24    1
    18     2    20    1
    19    27    24    1
    20    16    19    1
    21    16    17    1
    22    26    24    1
    23    22    20    1
    24    24    25    1
    25    23    20    1
    26    20    21    1
