@<TRIPOS>MOLECULE
3
 27 26 0 0 0
SMALL
GASTEIGER

@<TRIPOS>ATOM
      1 SI          9.4130    4.8323   10.4388 Si      1  UNL1        0.0000
      2 SI         10.4526    2.4937   12.0319 Si      1  UNL1        0.0000
      3 N           9.3053    3.2017   10.9724 N.3     1  UNL1        0.0000
      4 C           8.4413    4.9350    8.7961 C.3     1  UNL1        0.0000
      5 H           8.2522    5.9638    8.5150 H       1  UNL1        0.0000
      6 H           7.4798    4.4417    8.9117 H       1  UNL1        0.0000
      7 H           8.9676    4.4670    7.9724 H       1  UNL1        0.0000
      8 C           8.6548    6.0819   11.6705 C.3     1  UNL1        0.0000
      9 H           8.7584    7.1091   11.3355 H       1  UNL1        0.0000
     10 H           9.1252    6.0057   12.6449 H       1  UNL1        0.0000
     11 H           7.5987    5.8708   11.7892 H       1  UNL1        0.0000
     12 C          11.1889    5.4268   10.0491 C.3     1  UNL1        0.0000
     13 H          11.1921    6.4708    9.7533 H       1  UNL1        0.0000
     14 H          11.6321    4.8567    9.2399 H       1  UNL1        0.0000
     15 H          11.8327    5.3272   10.9145 H       1  UNL1        0.0000
     16 C          10.8910    3.6090   13.5258 C.3     1  UNL1        0.0000
     17 H          11.6243    3.1376   14.1728 H       1  UNL1        0.0000
     18 H          10.0181    3.8328   14.1307 H       1  UNL1        0.0000
     19 H          11.3066    4.5531   13.1907 H       1  UNL1        0.0000
     20 C           9.8611    0.8306   12.7555 C.3     1  UNL1        0.0000
     21 H          10.6253    0.4174   13.4054 H       1  UNL1        0.0000
     22 H           9.6740    0.1013   11.9761 H       1  UNL1        0.0000
     23 H           8.9601    0.9503   13.3414 H       1  UNL1        0.0000
     24 C          12.1061    2.0801   11.1460 C.3     1  UNL1        0.0000
     25 H          12.9215    2.0187   11.8601 H       1  UNL1        0.0000
     26 H          12.3683    2.8349   10.4146 H       1  UNL1        0.0000
     27 H          12.0580    1.1258   10.6310 H       1  UNL1        0.0000
@<TRIPOS>BOND
     1     7     4    1
     2     5     4    1
     3     4     6    1
     4     4     1    1
     5    14    12    1
     6    13    12    1
     7    12     1    1
     8    12    15    1
     9    26    24    1
    10     1     3    1
    11     1     8    1
    12    27    24    1
    13     3     2    1
    14    24    25    1
    15    24     2    1
    16     9     8    1
    17     8    11    1
    18     8    10    1
    19    22    20    1
    20     2    20    1
    21     2    16    1
    22    20    23    1
    23    20    21    1
    24    19    16    1
    25    16    18    1
    26    16    17    1
