@<TRIPOS>MOLECULE
3
 27 26 0 0 0
SMALL
GASTEIGER

@<TRIPOS>ATOM
      1 SI         -4.9657    4.7798   10.8562 Si      1  UNL1        0.0000
      2 SI         -4.3596    7.7403   10.5898 Si      1  UNL1        0.0000
      3 N          -4.0392    6.1798   11.2448 N.3     1  UNL1        0.0000
      4 C          -4.2425    3.8251    9.3533 C.3     1  UNL1        0.0000
      5 H          -4.2848    4.4315    8.4551 H       1  UNL1        0.0000
      6 H          -4.8192    2.9260    9.1635 H       1  UNL1        0.0000
      7 H          -3.2112    3.5273    9.5128 H       1  UNL1        0.0000
      8 C          -4.9759    3.5595   12.3441 C.3     1  UNL1        0.0000
      9 H          -4.8000    4.0816   13.2877 H       1  UNL1        0.0000
     10 H          -4.2344    2.7754   12.2282 H       1  UNL1        0.0000
     11 H          -5.9438    3.0728   12.4263 H       1  UNL1        0.0000
     12 C          -6.8327    4.9854   10.4676 C.3     1  UNL1        0.0000
     13 H          -7.3280    5.5598   11.2432 H       1  UNL1        0.0000
     14 H          -7.3200    4.0163   10.4133 H       1  UNL1        0.0000
     15 H          -7.0006    5.4846    9.5214 H       1  UNL1        0.0000
     16 C          -3.2856    8.1337    9.0452 C.3     1  UNL1        0.0000
     17 H          -3.5611    7.4903    8.2170 H       1  UNL1        0.0000
     18 H          -2.2240    8.0085    9.2209 H       1  UNL1        0.0000
     19 H          -3.4480    9.1581    8.7273 H       1  UNL1        0.0000
     20 C          -6.1365    8.1597   10.0006 C.3     1  UNL1        0.0000
     21 H          -6.4053    7.6025    9.1109 H       1  UNL1        0.0000
     22 H          -6.2129    9.2150    9.7549 H       1  UNL1        0.0000
     23 H          -6.8731    7.9451   10.7665 H       1  UNL1        0.0000
     24 C          -4.0286    9.0684   11.9462 C.3     1  UNL1        0.0000
     25 H          -3.1536    9.6717   11.7201 H       1  UNL1        0.0000
     26 H          -3.8979    8.5983   12.9260 H       1  UNL1        0.0000
     27 H          -4.8749    9.7452   12.0249 H       1  UNL1        0.0000
@<TRIPOS>BOND
     1    17    16    1
     2     5     4    1
     3    19    16    1
     4    16    18    1
     5    16     2    1
     6    21    20    1
     7     6     4    1
     8     4     7    1
     9     4     1    1
    10    15    12    1
    11    22    20    1
    12    20     2    1
    13    20    23    1
    14    14    12    1
    15    12     1    1
    16    12    13    1
    17     2     3    1
    18     2    24    1
    19     1     3    1
    20     1     8    1
    21    25    24    1
    22    24    27    1
    23    24    26    1
    24    10     8    1
    25     8    11    1
    26     8     9    1
