@<TRIPOS>MOLECULE
5
 43 42 0 0 0
SMALL
GASTEIGER

@<TRIPOS>ATOM
      1 P          11.1016    1.5054   13.8194 P.3     1  UNL1        0.0000
      2 P           5.2953    5.3276   15.2126 P.3     1  UNL1        0.0000
      3 SI         11.1694    4.3888   14.7945 Si      1  UNL1        0.0000
      4 SI          8.1822    4.7895   14.2224 Si      1  UNL1        0.0000
      5 N           9.5214    3.9032   14.8413 N.3     1  UNL1        0.0000
      6 C          12.2338    2.8579   14.3077 C.3     1  UNL1        0.0000
      7 C           6.6132    4.0296   15.0452 C.3     1  UNL1        0.0000
      8 C          12.3551    0.1874   13.4537 C.3     1  UNL1        0.0000
      9 C          10.7282    2.0284   12.0921 C.3     1  UNL1        0.0000
     10 C           3.8949    4.2392   15.7659 C.3     1  UNL1        0.0000
     11 C           5.7408    5.9659   16.8966 C.3     1  UNL1        0.0000
     12 C          11.5611    5.7162   13.4753 C.3     1  UNL1        0.0000
     13 C          11.8210    5.0527   16.4715 C.3     1  UNL1        0.0000
     14 C           7.8881    4.6382   12.3310 C.3     1  UNL1        0.0000
     15 C           8.3157    6.6613   14.5920 C.3     1  UNL1        0.0000
     16 H          12.8117    2.5129   15.1644 H       1  UNL1        0.0000
     17 H          12.9261    3.0688   13.4911 H       1  UNL1        0.0000
     18 H           6.7996    3.5375   16.0118 H       1  UNL1        0.0000
     19 H           6.2090    3.2859   14.3537 H       1  UNL1        0.0000
     20 H          11.8943   -0.6162   12.8832 H       1  UNL1        0.0000
     21 H          13.1823    0.6062   12.8819 H       1  UNL1        0.0000
     22 H          12.7333   -0.2107   14.3939 H       1  UNL1        0.0000
     23 H          10.1665    2.9596   12.1323 H       1  UNL1        0.0000
     24 H          11.6446    2.1709   11.5191 H       1  UNL1        0.0000
     25 H          10.1090    1.2721   11.6116 H       1  UNL1        0.0000
     26 H           3.0558    4.8622   16.0716 H       1  UNL1        0.0000
     27 H           3.5733    3.6173   14.9335 H       1  UNL1        0.0000
     28 H           4.1950    3.6040   16.5976 H       1  UNL1        0.0000
     29 H           6.6693    6.5267   16.8451 H       1  UNL1        0.0000
     30 H           4.9530    6.6375   17.2351 H       1  UNL1        0.0000
     31 H           5.8472    5.1485   17.6075 H       1  UNL1        0.0000
     32 H          12.6302    5.7950   13.3119 H       1  UNL1        0.0000
     33 H          11.0935    5.4984   12.5221 H       1  UNL1        0.0000
     34 H          11.2104    6.6867   13.8006 H       1  UNL1        0.0000
     35 H          11.8847    4.2703   17.2220 H       1  UNL1        0.0000
     36 H          12.8149    5.4712   16.3486 H       1  UNL1        0.0000
     37 H          11.1830    5.8403   16.8588 H       1  UNL1        0.0000
     38 H           6.9662    5.1437   12.0596 H       1  UNL1        0.0000
     39 H           8.6898    5.0937   11.7583 H       1  UNL1        0.0000
     40 H           7.7962    3.6005   12.0223 H       1  UNL1        0.0000
     41 H           8.7570    6.8586   15.5633 H       1  UNL1        0.0000
     42 H           8.9391    7.1429   13.8488 H       1  UNL1        0.0000
     43 H           7.3393    7.1321   14.5533 H       1  UNL1        0.0000
@<TRIPOS>BOND
     1    24     9    1
     2    25     9    1
     3    39    14    1
     4    40    14    1
     5    38    14    1
     6     9    23    1
     7     9     1    1
     8    14     4    1
     9    33    12    1
    10    21     8    1
    11    20     8    1
    12    32    12    1
    13     8     1    1
    14     8    22    1
    15    12    34    1
    16    12     3    1
    17    17     6    1
    18     1     6    1
    19    42    15    1
    20     4    15    1
    21     4     5    1
    22     4     7    1
    23     6     3    1
    24     6    16    1
    25    19     7    1
    26    43    15    1
    27    15    41    1
    28     3     5    1
    29     3    13    1
    30    27    10    1
    31     7     2    1
    32     7    18    1
    33     2    10    1
    34     2    11    1
    35    10    26    1
    36    10    28    1
    37    36    13    1
    38    13    37    1
    39    13    35    1
    40    29    11    1
    41    11    30    1
    42    11    31    1
