@<TRIPOS>MOLECULE
1
 22 22 0 0 0
SMALL
GASTEIGER

@<TRIPOS>ATOM
      1 N           1.4366    4.4056    7.4183 N.pl3   1  UNL1       -0.2660
      2 H           1.3071    5.4067    7.5354 H       1  UNL1        0.1699
      3 C           0.7372    3.7407    8.3987 C.ar    1  UNL1        0.0501
      4 C           0.2694    4.4042    9.5558 C.ar    1  UNL1       -0.0277
      5 C          -0.4125    3.6984   10.5293 C.ar    1  UNL1       -0.0541
      6 H          -0.7524    4.2228   11.4132 H       1  UNL1        0.0623
      7 C          -0.6727    2.3403   10.4106 C.ar    1  UNL1       -0.0498
      8 C          -0.2319    1.6949    9.2651 C.ar    1  UNL1       -0.0541
      9 H          -0.4349    0.6392    9.1408 H       1  UNL1        0.0623
     10 C           0.4606    2.3613    8.2709 C.ar    1  UNL1       -0.0277
     11 C           0.8917    1.6399    7.0344 C.3     1  UNL1       -0.0379
     12 H           0.4287    0.6589    6.9681 H       1  UNL1        0.0278
     13 H           1.9809    1.5015    7.0026 H       1  UNL1        0.0278
     14 H           0.6118    2.2202    6.1413 H       1  UNL1        0.0278
     15 C          -1.4349    1.6053   11.4738 C.3     1  UNL1       -0.0397
     16 H          -1.1899    0.5452   11.4632 H       1  UNL1        0.0278
     17 H          -2.5090    1.7046   11.3073 H       1  UNL1        0.0278
     18 H          -1.2113    2.0076   12.4604 H       1  UNL1        0.0278
     19 C           0.5302    5.8726    9.7531 C.3     1  UNL1       -0.0379
     20 H           0.1191    6.2031   10.7042 H       1  UNL1        0.0278
     21 H           0.0658    6.4668    8.9628 H       1  UNL1        0.0278
     22 H           1.6012    6.0800    9.7524 H       1  UNL1        0.0278
@<TRIPOS>BOND
     1    14    11    1
     2    12    11    1
     3    13    11    1
     4    11    10    1
     5     1     2    1
     6     1     3    1
     7    10     3   ar
     8    10     8   ar
     9     3     4   ar
    10    21    19    1
    11     9     8    1
    12     8     7   ar
    13     4    19    1
    14     4     5   ar
    15    22    19    1
    16    19    20    1
    17     7     5   ar
    18     7    15    1
    19     5     6    1
    20    17    15    1
    21    16    15    1
    22    15    18    1
