@<TRIPOS>MOLECULE
1
 31 31 0 0 0
SMALL
GASTEIGER

@<TRIPOS>ATOM
      1 N           2.9175    2.6002    6.0559 N.pl3   1  UNL1       -0.2660
      2 H           3.3941    3.4897    6.2157 H       1  UNL1        0.1699
      3 C           1.8294    2.5074    6.8950 C.ar    1  UNL1        0.0512
      4 C           1.4019    3.6189    7.6711 C.ar    1  UNL1       -0.0222
      5 C           0.2889    3.4979    8.4828 C.ar    1  UNL1       -0.0565
      6 H          -0.0517    4.3446    9.0572 H       1  UNL1        0.0621
      7 C          -0.4107    2.3091    8.5773 C.ar    1  UNL1       -0.0611
      8 H          -1.2770    2.2362    9.2180 H       1  UNL1        0.0618
      9 C           0.0097    1.2203    7.8400 C.ar    1  UNL1       -0.0565
     10 H          -0.5383    0.2931    7.9164 H       1  UNL1        0.0621
     11 C           1.1083    1.2937    7.0004 C.ar    1  UNL1       -0.0222
     12 C           1.4910    0.0527    6.2217 C.3     1  UNL1       -0.0197
     13 H           2.4071    0.2513    5.6307 H       1  UNL1        0.0344
     14 C           1.7922   -1.1114    7.1713 C.3     1  UNL1       -0.0586
     15 H           2.4692   -0.7949    7.9611 H       1  UNL1        0.0235
     16 H           2.2503   -1.9336    6.6255 H       1  UNL1        0.0235
     17 H           0.8795   -1.4787    7.6344 H       1  UNL1        0.0235
     18 C           0.3871   -0.3393    5.2386 C.3     1  UNL1       -0.0586
     19 H          -0.5425   -0.5498    5.7624 H       1  UNL1        0.0235
     20 H           0.6752   -1.2253    4.6784 H       1  UNL1        0.0235
     21 H           0.2097    0.4604    4.5266 H       1  UNL1        0.0235
     22 C           2.1200    4.9507    7.5654 C.3     1  UNL1       -0.0197
     23 H           3.1971    4.7678    7.4746 H       1  UNL1        0.0344
     24 C           1.6484    5.6812    6.3030 C.3     1  UNL1       -0.0586
     25 H           1.8227    5.0732    5.4178 H       1  UNL1        0.0235
     26 H           2.1772    6.6263    6.1897 H       1  UNL1        0.0235
     27 H           0.5820    5.8875    6.3709 H       1  UNL1        0.0235
     28 C           1.9462    5.8542    8.7866 C.3     1  UNL1       -0.0586
     29 H           0.9380    6.2567    8.8445 H       1  UNL1        0.0235
     30 H           2.6341    6.6956    8.7152 H       1  UNL1        0.0235
     31 H           2.1614    5.3104    9.7040 H       1  UNL1        0.0235
@<TRIPOS>BOND
     1    21    18    1
     2    20    18    1
     3    18    19    1
     4    18    12    1
     5    25    24    1
     6    13    12    1
     7     1     2    1
     8     1     3    1
     9    26    24    1
    10    12    11    1
    11    12    14    1
    12    24    27    1
    13    24    22    1
    14    16    14    1
    15     3    11   ar
    16     3     4   ar
    17    11     9   ar
    18    14    17    1
    19    14    15    1
    20    23    22    1
    21    22     4    1
    22    22    28    1
    23     4     5   ar
    24     9    10    1
    25     9     7   ar
    26     5     7   ar
    27     5     6    1
    28     7     8    1
    29    30    28    1
    30    28    29    1
    31    28    31    1
