@<TRIPOS>MOLECULE
4
 44 45 0 0 0
SMALL
GASTEIGER

@<TRIPOS>ATOM
      1 SI          4.3330    2.1361    1.5845 Si      1  UNL1        0.0000
      2 H           5.7486    1.7475    1.7965 H       1  UNL1        0.0000
      3 H           3.9455    1.7501    0.2192 H       1  UNL1        0.0000
      4 N           3.3629    1.3841    2.7782 N.pl3   1  UNL1        0.0000
      5 C           2.1731    0.7628    2.3683 C.ar    1  UNL1        0.0000
      6 C           2.1481   -0.6139    2.0881 C.ar    1  UNL1        0.0000
      7 C           0.9902   -1.1932    1.5942 C.ar    1  UNL1        0.0000
      8 H           0.9809   -2.2446    1.3467 H       1  UNL1        0.0000
      9 C          -0.1557   -0.4470    1.3989 C.ar    1  UNL1        0.0000
     10 H          -1.0471   -0.9093    1.0008 H       1  UNL1        0.0000
     11 C          -0.1526    0.8943    1.7287 C.ar    1  UNL1        0.0000
     12 H          -1.0548    1.4733    1.5940 H       1  UNL1        0.0000
     13 C           0.9873    1.5115    2.2189 C.ar    1  UNL1        0.0000
     14 C           0.9442    2.9791    2.5756 C.3     1  UNL1        0.0000
     15 H           1.9067    3.2425    3.0307 H       1  UNL1        0.0000
     16 C          -0.1404    3.2911    3.6095 C.3     1  UNL1        0.0000
     17 H          -1.1258    2.9946    3.2578 H       1  UNL1        0.0000
     18 H          -0.1600    4.3606    3.8102 H       1  UNL1        0.0000
     19 H           0.0652    2.7733    4.5446 H       1  UNL1        0.0000
     20 C           0.7584    3.8300    1.3179 C.3     1  UNL1        0.0000
     21 H           1.5299    3.5971    0.5872 H       1  UNL1        0.0000
     22 H           0.8288    4.8885    1.5625 H       1  UNL1        0.0000
     23 H          -0.2131    3.6423    0.8654 H       1  UNL1        0.0000
     24 C           3.3822   -1.4530    2.3115 C.3     1  UNL1        0.0000
     25 H           4.0992   -0.8455    2.8780 H       1  UNL1        0.0000
     26 C           3.0661   -2.7051    3.1298 C.3     1  UNL1        0.0000
     27 H           2.3558   -3.3468    2.6143 H       1  UNL1        0.0000
     28 H           2.6474   -2.4293    4.0946 H       1  UNL1        0.0000
     29 H           3.9756   -3.2734    3.3003 H       1  UNL1        0.0000
     30 C           4.0165   -1.8340    0.9729 C.3     1  UNL1        0.0000
     31 H           4.8962   -2.4524    1.1364 H       1  UNL1        0.0000
     32 H           4.3121   -0.9392    0.4303 H       1  UNL1        0.0000
     33 H           3.3106   -2.3927    0.3615 H       1  UNL1        0.0000
     34 C           4.2201    4.0218    1.7181 C.ar    1  UNL1        0.0000
     35 C           3.9696    4.6173    2.9484 C.ar    1  UNL1        0.0000
     36 H           3.9005    3.9790    3.8294 H       1  UNL1        0.0000
     37 C           3.8141    5.9855    3.0676 C.ar    1  UNL1        0.0000
     38 H           3.6052    6.4267    4.0309 H       1  UNL1        0.0000
     39 C           3.9299    6.7921    1.9476 C.ar    1  UNL1        0.0000
     40 H           3.8069    7.8627    2.0334 H       1  UNL1        0.0000
     41 C           4.2034    6.2204    0.7163 C.ar    1  UNL1        0.0000
     42 H           4.3007    6.8463   -0.1602 H       1  UNL1        0.0000
     43 C           4.3410    4.8478    0.6075 C.ar    1  UNL1        0.0000
     44 H           4.5440    4.4064   -0.3585 H       1  UNL1        0.0000
@<TRIPOS>BOND
     1    44    43    1
     2    42    41    1
     3     3     1    1
     4    33    30    1
     5    32    30    1
     6    21    20    1
     7    43    41   ar
     8    43    34   ar
     9    41    39   ar
    10    23    20    1
    11    30    31    1
    12    30    24    1
    13    10     9    1
    14    20    22    1
    15    20    14    1
    16     8     7    1
    17     9     7   ar
    18     9    11   ar
    19     1    34    1
    20     1     2    1
    21     1     4    1
    22    12    11    1
    23     7     6   ar
    24    34    35   ar
    25    11    13   ar
    26    39    40    1
    27    39    37   ar
    28     6    24    1
    29     6     5   ar
    30    13     5   ar
    31    13    14    1
    32    24    25    1
    33    24    26    1
    34     5     4    1
    35    14    15    1
    36    14    16    1
    37    27    26    1
    38    35    37   ar
    39    35    36    1
    40    37    38    1
    41    26    29    1
    42    26    28    1
    43    17    16    1
    44    16    18    1
    45    16    19    1
