@<TRIPOS>MOLECULE
2
 43 43 0 0 0
SMALL
GASTEIGER

@<TRIPOS>ATOM
      1 SI          0.3622    4.9513    6.4495 Si      1  UNL1        0.0000
      2 N          -0.9645    5.2542    5.3906 N.pl3   1  UNL1        0.0000
      3 C          -1.9661    4.2842    5.2456 C.ar    1  UNL1        0.0000
      4 C          -1.8905    3.3133    4.2197 C.ar    1  UNL1        0.0000
      5 C          -2.8747    2.3420    4.1156 C.ar    1  UNL1        0.0000
      6 H          -2.8039    1.5923    3.3405 H       1  UNL1        0.0000
      7 C          -3.9384    2.2995    4.9985 C.ar    1  UNL1        0.0000
      8 H          -4.6930    1.5323    4.9077 H       1  UNL1        0.0000
      9 C          -4.0146    3.2405    6.0080 C.ar    1  UNL1        0.0000
     10 H          -4.8359    3.1968    6.7083 H       1  UNL1        0.0000
     11 C          -3.0471    4.2222    6.1510 C.ar    1  UNL1        0.0000
     12 C          -3.1443    5.2157    7.2835 C.3     1  UNL1        0.0000
     13 H          -2.3071    5.9126    7.1778 H       1  UNL1        0.0000
     14 C          -4.4436    6.0173    7.2018 C.3     1  UNL1        0.0000
     15 H          -4.5135    6.5060    6.2340 H       1  UNL1        0.0000
     16 H          -4.4633    6.7808    7.9764 H       1  UNL1        0.0000
     17 H          -5.3122    5.3758    7.3323 H       1  UNL1        0.0000
     18 C          -3.0229    4.5161    8.6381 C.3     1  UNL1        0.0000
     19 H          -2.0951    3.9530    8.6880 H       1  UNL1        0.0000
     20 H          -3.8515    3.8290    8.7950 H       1  UNL1        0.0000
     21 H          -3.0301    5.2498    9.4420 H       1  UNL1        0.0000
     22 C          -0.7287    3.3043    3.2497 C.3     1  UNL1        0.0000
     23 H          -0.1067    4.1909    3.4481 H       1  UNL1        0.0000
     24 C           0.1439    2.0654    3.4689 C.3     1  UNL1        0.0000
     25 H           0.4993    2.0343    4.4950 H       1  UNL1        0.0000
     26 H           1.0033    2.0884    2.8020 H       1  UNL1        0.0000
     27 H          -0.4197    1.1556    3.2728 H       1  UNL1        0.0000
     28 C          -1.2039    3.3673    1.7938 C.3     1  UNL1        0.0000
     29 H          -1.8638    4.2216    1.6395 H       1  UNL1        0.0000
     30 H          -1.7392    2.4608    1.5175 H       1  UNL1        0.0000
     31 H          -0.3489    3.4736    1.1290 H       1  UNL1        0.0000
     32 C           2.0181    5.1843    5.5052 C.3     1  UNL1        0.0000
     33 H           2.1563    6.2187    5.1991 H       1  UNL1        0.0000
     34 H           2.0874    4.5658    4.6155 H       1  UNL1        0.0000
     35 H           2.8560    4.9282    6.1453 H       1  UNL1        0.0000
     36 C           0.4452    6.1865    7.9194 C.3     1  UNL1        0.0000
     37 H          -0.3182    5.9957    8.6664 H       1  UNL1        0.0000
     38 H           0.3323    7.2139    7.5868 H       1  UNL1        0.0000
     39 H           1.4086    6.1090    8.4133 H       1  UNL1        0.0000
     40 C           0.3310    3.1797    7.1837 C.3     1  UNL1        0.0000
     41 H           0.3783    3.2003    8.2675 H       1  UNL1        0.0000
     42 H           1.1690    2.5842    6.8364 H       1  UNL1        0.0000
     43 H          -0.5817    2.6642    6.9017 H       1  UNL1        0.0000
@<TRIPOS>BOND
     1    31    28    1
     2    30    28    1
     3    29    28    1
     4    28    22    1
     5    26    24    1
     6    22    23    1
     7    22    24    1
     8    22     4    1
     9    27    24    1
    10     6     5    1
    11    24    25    1
    12     5     4   ar
    13     5     7   ar
    14     4     3   ar
    15    34    32    1
    16     8     7    1
    17     7     9   ar
    18    33    32    1
    19     3     2    1
    20     3    11   ar
    21     2     1    1
    22    32    35    1
    23    32     1    1
    24     9    11   ar
    25     9    10    1
    26    11    12    1
    27    15    14    1
    28     1    40    1
    29     1    36    1
    30    42    40    1
    31    43    40    1
    32    13    12    1
    33    40    41    1
    34    14    12    1
    35    14    17    1
    36    14    16    1
    37    12    18    1
    38    38    36    1
    39    36    39    1
    40    36    37    1
    41    18    19    1
    42    18    20    1
    43    18    21    1
