@<TRIPOS>MOLECULE
2
 43 43 0 0 0
SMALL
GASTEIGER

@<TRIPOS>ATOM
      1 SI         -1.3649    9.8737    5.5975 Si      1  UNL1        0.0000
      2 N          -2.0544    8.9956    4.2945 N.pl3   1  UNL1        0.0000
      3 C          -2.9627    9.5669    3.3965 C.ar    1  UNL1        0.0000
      4 C          -4.3339    9.6895    3.7134 C.ar    1  UNL1        0.0000
      5 C          -5.2038   10.2773    2.8081 C.ar    1  UNL1        0.0000
      6 H          -6.2475   10.3849    3.0653 H       1  UNL1        0.0000
      7 C          -4.7637   10.7526    1.5881 C.ar    1  UNL1        0.0000
      8 H          -5.4539   11.2148    0.8982 H       1  UNL1        0.0000
      9 C          -3.4222   10.6502    1.2736 C.ar    1  UNL1        0.0000
     10 H          -3.0737   11.0510    0.3336 H       1  UNL1        0.0000
     11 C          -2.5179   10.0689    2.1493 C.ar    1  UNL1        0.0000
     12 C          -4.8623    9.2330    5.0526 C.3     1  UNL1        0.0000
     13 H          -4.0757    8.6417    5.5317 H       1  UNL1        0.0000
     14 C          -5.1673   10.4468    5.9343 C.3     1  UNL1        0.0000
     15 H          -4.2816   11.0631    6.0504 H       1  UNL1        0.0000
     16 H          -5.5027   10.1246    6.9184 H       1  UNL1        0.0000
     17 H          -5.9517   11.0535    5.4861 H       1  UNL1        0.0000
     18 C          -6.1194    8.3689    4.9250 C.3     1  UNL1        0.0000
     19 H          -5.9407    7.5169    4.2746 H       1  UNL1        0.0000
     20 H          -6.9514    8.9405    4.5207 H       1  UNL1        0.0000
     21 H          -6.4164    7.9994    5.9044 H       1  UNL1        0.0000
     22 C          -1.0490   10.0458    1.7796 C.3     1  UNL1        0.0000
     23 H          -0.5209    9.3691    2.4742 H       1  UNL1        0.0000
     24 C          -0.8063    9.5508    0.3510 C.3     1  UNL1        0.0000
     25 H          -1.2529    8.5701    0.1930 H       1  UNL1        0.0000
     26 H           0.2626    9.4679    0.1683 H       1  UNL1        0.0000
     27 H          -1.2172   10.2414   -0.3817 H       1  UNL1        0.0000
     28 C          -0.4539   11.4472    1.9511 C.3     1  UNL1        0.0000
     29 H          -0.5840   11.7896    2.9732 H       1  UNL1        0.0000
     30 H          -0.9483   12.1527    1.2862 H       1  UNL1        0.0000
     31 H           0.6087   11.4380    1.7166 H       1  UNL1        0.0000
     32 C          -1.9243    9.2237    7.3163 C.3     1  UNL1        0.0000
     33 H          -1.9649    8.1379    7.3223 H       1  UNL1        0.0000
     34 H          -2.9038    9.5913    7.6013 H       1  UNL1        0.0000
     35 H          -1.2262    9.5295    8.0891 H       1  UNL1        0.0000
     36 C          -1.6570   11.7683    5.5425 C.3     1  UNL1        0.0000
     37 H          -2.0468   12.1368    6.4859 H       1  UNL1        0.0000
     38 H          -2.3732   12.0208    4.7667 H       1  UNL1        0.0000
     39 H          -0.7409   12.3134    5.3387 H       1  UNL1        0.0000
     40 C           0.5346    9.5503    5.5255 C.3     1  UNL1        0.0000
     41 H           0.7495    8.4770    5.5540 H       1  UNL1        0.0000
     42 H           1.0345    9.9962    6.3796 H       1  UNL1        0.0000
     43 H           0.9913    9.9661    4.6304 H       1  UNL1        0.0000
@<TRIPOS>BOND
     1    27    24    1
     2    26    24    1
     3    25    24    1
     4    10     9    1
     5    24    22    1
     6     8     7    1
     7     9     7   ar
     8     9    11   ar
     9    30    28    1
    10     7     5   ar
    11    31    28    1
    12    22    28    1
    13    22    11    1
    14    22    23    1
    15    28    29    1
    16    11     3   ar
    17     5     6    1
    18     5     4   ar
    19     3     4   ar
    20     3     2    1
    21     4    12    1
    22    19    18    1
    23     2     1    1
    24    20    18    1
    25    43    40    1
    26    38    36    1
    27    18    12    1
    28    18    21    1
    29    12    13    1
    30    12    14    1
    31    39    36    1
    32    17    14    1
    33    40    41    1
    34    40     1    1
    35    40    42    1
    36    36     1    1
    37    36    37    1
    38     1    32    1
    39    14    15    1
    40    14    16    1
    41    32    33    1
    42    32    34    1
    43    32    35    1
