@<TRIPOS>MOLECULE
2
 43 43 0 0 0
SMALL
GASTEIGER

@<TRIPOS>ATOM
      1 SI          1.9850    6.1078    3.4559 Si      1  UNL1        0.0000
      2 N           1.1249    4.6732    3.0520 N.pl3   1  UNL1        0.0000
      3 C           0.0643    4.6741    2.1259 C.ar    1  UNL1        0.0000
      4 C           0.2882    4.2375    0.7995 C.ar    1  UNL1        0.0000
      5 C          -0.7692    4.1568   -0.0932 C.ar    1  UNL1        0.0000
      6 H          -0.5914    3.8108   -1.1007 H       1  UNL1        0.0000
      7 C          -2.0489    4.5237    0.2751 C.ar    1  UNL1        0.0000
      8 H          -2.8647    4.4494   -0.4285 H       1  UNL1        0.0000
      9 C          -2.2616    5.0154    1.5477 C.ar    1  UNL1        0.0000
     10 H          -3.2538    5.3386    1.8265 H       1  UNL1        0.0000
     11 C          -1.2317    5.1105    2.4720 C.ar    1  UNL1        0.0000
     12 C           1.6784    3.8952    0.3051 C.3     1  UNL1        0.0000
     13 H           2.3939    4.0880    1.1183 H       1  UNL1        0.0000
     14 C           1.7958    2.4229   -0.1022 C.3     1  UNL1        0.0000
     15 H           1.6897    1.7641    0.7648 H       1  UNL1        0.0000
     16 H           2.7718    2.2335   -0.5431 H       1  UNL1        0.0000
     17 H           1.0307    2.1608   -0.8301 H       1  UNL1        0.0000
     18 C           2.0579    4.7841   -0.8830 C.3     1  UNL1        0.0000
     19 H           1.9421    5.8336   -0.6276 H       1  UNL1        0.0000
     20 H           1.4279    4.5714   -1.7429 H       1  UNL1        0.0000
     21 H           3.0918    4.6043   -1.1685 H       1  UNL1        0.0000
     22 C          -1.5305    5.7292    3.8168 C.3     1  UNL1        0.0000
     23 H          -0.6057    5.7446    4.3920 H       1  UNL1        0.0000
     24 C          -1.9973    7.1761    3.6325 C.3     1  UNL1        0.0000
     25 H          -1.2856    7.7279    3.0225 H       1  UNL1        0.0000
     26 H          -2.0872    7.6691    4.5985 H       1  UNL1        0.0000
     27 H          -2.9668    7.2136    3.1413 H       1  UNL1        0.0000
     28 C          -2.5701    4.9346    4.6088 C.3     1  UNL1        0.0000
     29 H          -2.2156    3.9252    4.7980 H       1  UNL1        0.0000
     30 H          -3.5137    4.8764    4.0709 H       1  UNL1        0.0000
     31 H          -2.7545    5.4179    5.5662 H       1  UNL1        0.0000
     32 C           2.2180    7.2707    1.9524 C.3     1  UNL1        0.0000
     33 H           3.0163    6.9390    1.2971 H       1  UNL1        0.0000
     34 H           2.4488    8.2839    2.2639 H       1  UNL1        0.0000
     35 H           1.3034    7.3062    1.3684 H       1  UNL1        0.0000
     36 C           1.3985    7.2617    4.8820 C.3     1  UNL1        0.0000
     37 H           0.5585    7.8857    4.5987 H       1  UNL1        0.0000
     38 H           2.2115    7.9264    5.1618 H       1  UNL1        0.0000
     39 H           1.1168    6.7113    5.7746 H       1  UNL1        0.0000
     40 C           3.6763    5.4679    4.0985 C.3     1  UNL1        0.0000
     41 H           4.0761    4.6590    3.4882 H       1  UNL1        0.0000
     42 H           3.5975    5.1264    5.1304 H       1  UNL1        0.0000
     43 H           4.4079    6.2695    4.0887 H       1  UNL1        0.0000
@<TRIPOS>BOND
     1    20    18    1
     2    21    18    1
     3     6     5    1
     4    18    19    1
     5    18    12    1
     6    17    14    1
     7    16    14    1
     8     8     7    1
     9    14    12    1
    10    14    15    1
    11     5     7   ar
    12     5     4   ar
    13     7     9   ar
    14    12     4    1
    15    12    13    1
    16     4     3   ar
    17    33    32    1
    18    35    32    1
    19     9    10    1
    20     9    11   ar
    21    32    34    1
    22    32     1    1
    23     3    11   ar
    24     3     2    1
    25    11    22    1
    26    25    24    1
    27     2     1    1
    28    27    24    1
    29     1    40    1
    30     1    36    1
    31    41    40    1
    32    24    22    1
    33    24    26    1
    34    22    23    1
    35    22    28    1
    36    30    28    1
    37    43    40    1
    38    40    42    1
    39    37    36    1
    40    28    29    1
    41    28    31    1
    42    36    38    1
    43    36    39    1
