@<TRIPOS>MOLECULE
2
 43 43 0 0 0
SMALL
GASTEIGER

@<TRIPOS>ATOM
      1 SI          0.2713    2.0305    6.9353 Si      1  UNL1        0.0000
      2 N           0.7053    1.2783    5.4499 N.pl3   1  UNL1        0.0000
      3 C           0.1844    0.0282    5.0647 C.ar    1  UNL1        0.0000
      4 C           0.6836   -1.1838    5.5862 C.ar    1  UNL1        0.0000
      5 C           0.1941   -2.3921    5.1128 C.ar    1  UNL1        0.0000
      6 H           0.5927   -3.3152    5.5076 H       1  UNL1        0.0000
      7 C          -0.7964   -2.4455    4.1523 C.ar    1  UNL1        0.0000
      8 H          -1.1589   -3.3957    3.7893 H       1  UNL1        0.0000
      9 C          -1.3375   -1.2634    3.6857 C.ar    1  UNL1        0.0000
     10 H          -2.1412   -1.3020    2.9652 H       1  UNL1        0.0000
     11 C          -0.8787   -0.0348    4.1343 C.ar    1  UNL1        0.0000
     12 C           1.7145   -1.2102    6.6893 C.3     1  UNL1        0.0000
     13 H           1.9594   -0.1798    6.9444 H       1  UNL1        0.0000
     14 C           3.0045   -1.9155    6.2674 C.3     1  UNL1        0.0000
     15 H           3.4559   -1.4084    5.4191 H       1  UNL1        0.0000
     16 H           2.8148   -2.9507    5.9926 H       1  UNL1        0.0000
     17 H           3.7169   -1.9077    7.0900 H       1  UNL1        0.0000
     18 C           1.1274   -1.8798    7.9351 C.3     1  UNL1        0.0000
     19 H           0.1836   -1.4119    8.2062 H       1  UNL1        0.0000
     20 H           1.8168   -1.7890    8.7722 H       1  UNL1        0.0000
     21 H           0.9443   -2.9373    7.7597 H       1  UNL1        0.0000
     22 C          -1.5713    1.2188    3.6415 C.3     1  UNL1        0.0000
     23 H          -1.1286    2.0853    4.1550 H       1  UNL1        0.0000
     24 C          -3.0638    1.1748    3.9828 C.3     1  UNL1        0.0000
     25 H          -3.5361    2.1172    3.7155 H       1  UNL1        0.0000
     26 H          -3.2079    0.9992    5.0451 H       1  UNL1        0.0000
     27 H          -3.5631    0.3793    3.4355 H       1  UNL1        0.0000
     28 C          -1.3991    1.4127    2.1315 C.3     1  UNL1        0.0000
     29 H          -0.3525    1.6022    1.8753 H       1  UNL1        0.0000
     30 H          -1.9816    2.2674    1.7951 H       1  UNL1        0.0000
     31 H          -1.7329    0.5313    1.5879 H       1  UNL1        0.0000
     32 C          -1.5626    1.7354    7.4006 C.3     1  UNL1        0.0000
     33 H          -2.2358    2.3740    6.8386 H       1  UNL1        0.0000
     34 H          -1.7409    1.9179    8.4550 H       1  UNL1        0.0000
     35 H          -1.8346    0.7047    7.1944 H       1  UNL1        0.0000
     36 C           0.6061    3.8941    6.6234 C.3     1  UNL1        0.0000
     37 H           0.2291    4.2287    5.6582 H       1  UNL1        0.0000
     38 H           1.6720    4.1155    6.6831 H       1  UNL1        0.0000
     39 H           0.1182    4.4946    7.3845 H       1  UNL1        0.0000
     40 C           1.2514    1.6861    8.5571 C.3     1  UNL1        0.0000
     41 H           2.3265    1.7095    8.4073 H       1  UNL1        0.0000
     42 H           1.0001    0.7311    9.0045 H       1  UNL1        0.0000
     43 H           1.0154    2.4545    9.2883 H       1  UNL1        0.0000
@<TRIPOS>BOND
     1    31    28    1
     2    30    28    1
     3    29    28    1
     4    28    22    1
     5    10     9    1
     6    27    24    1
     7    22    24    1
     8    22    11    1
     9    22    23    1
    10     9    11   ar
    11     9     7   ar
    12    25    24    1
    13     8     7    1
    14    24    26    1
    15    11     3   ar
    16     7     5   ar
    17     3     2    1
    18     3     4   ar
    19     5     6    1
    20     5     4   ar
    21    15    14    1
    22     2     1    1
    23     4    12    1
    24    37    36    1
    25    16    14    1
    26    14    12    1
    27    14    17    1
    28    36    38    1
    29    36     1    1
    30    36    39    1
    31    12    13    1
    32    12    18    1
    33    33    32    1
    34     1    32    1
    35     1    40    1
    36    35    32    1
    37    32    34    1
    38    21    18    1
    39    18    19    1
    40    18    20    1
    41    41    40    1
    42    40    42    1
    43    40    43    1
