@<TRIPOS>MOLECULE
2
 43 43 0 0 0
SMALL
GASTEIGER

@<TRIPOS>ATOM
      1 SI          5.3797    1.7636    4.5908 Si      1  UNL1        0.0000
      2 N           4.2415    1.9045    3.3083 N.pl3   1  UNL1        0.0000
      3 C           4.5288    1.4683    2.0008 C.ar    1  UNL1        0.0000
      4 C           5.3061    2.2368    1.1091 C.ar    1  UNL1        0.0000
      5 C           5.4880    1.8038   -0.1961 C.ar    1  UNL1        0.0000
      6 H           6.0719    2.4061   -0.8765 H       1  UNL1        0.0000
      7 C           4.9460    0.6165   -0.6471 C.ar    1  UNL1        0.0000
      8 H           5.0904    0.3002   -1.6695 H       1  UNL1        0.0000
      9 C           4.2424   -0.1754    0.2395 C.ar    1  UNL1        0.0000
     10 H           3.8531   -1.1245   -0.0984 H       1  UNL1        0.0000
     11 C           4.0397    0.2194    1.5526 C.ar    1  UNL1        0.0000
     12 C           5.9956    3.5071    1.5465 C.3     1  UNL1        0.0000
     13 H           5.7630    3.6703    2.5980 H       1  UNL1        0.0000
     14 C           5.5242    4.7310    0.7596 C.3     1  UNL1        0.0000
     15 H           4.4587    4.8884    0.9018 H       1  UNL1        0.0000
     16 H           5.7197    4.6136   -0.3039 H       1  UNL1        0.0000
     17 H           6.0507    5.6184    1.1055 H       1  UNL1        0.0000
     18 C           7.5132    3.3466    1.4171 C.3     1  UNL1        0.0000
     19 H           7.8432    2.4460    1.9301 H       1  UNL1        0.0000
     20 H           8.0214    4.2044    1.8532 H       1  UNL1        0.0000
     21 H           7.8099    3.2712    0.3736 H       1  UNL1        0.0000
     22 C           3.3310   -0.7325    2.4936 C.3     1  UNL1        0.0000
     23 H           3.3408   -0.2933    3.5018 H       1  UNL1        0.0000
     24 C           4.0659   -2.0750    2.5520 C.3     1  UNL1        0.0000
     25 H           5.1142   -1.9264    2.7956 H       1  UNL1        0.0000
     26 H           4.0080   -2.5909    1.5971 H       1  UNL1        0.0000
     27 H           3.6172   -2.7141    3.3090 H       1  UNL1        0.0000
     28 C           1.8736   -0.9659    2.0828 C.3     1  UNL1        0.0000
     29 H           1.2827   -0.0507    2.1899 H       1  UNL1        0.0000
     30 H           1.4225   -1.7256    2.7170 H       1  UNL1        0.0000
     31 H           1.8119   -1.2975    1.0482 H       1  UNL1        0.0000
     32 C           6.4067    0.1505    4.4937 C.3     1  UNL1        0.0000
     33 H           5.8440   -0.7148    4.8276 H       1  UNL1        0.0000
     34 H           7.3043    0.2122    5.0998 H       1  UNL1        0.0000
     35 H           6.7140   -0.0304    3.4682 H       1  UNL1        0.0000
     36 C           4.2926    1.7878    6.1716 C.3     1  UNL1        0.0000
     37 H           3.4306    1.1272    6.0929 H       1  UNL1        0.0000
     38 H           3.9463    2.7980    6.3926 H       1  UNL1        0.0000
     39 H           4.8714    1.4600    7.0293 H       1  UNL1        0.0000
     40 C           6.6730    3.1478    4.9373 C.3     1  UNL1        0.0000
     41 H           6.2361    4.1416    4.9147 H       1  UNL1        0.0000
     42 H           7.5001    3.1335    4.2365 H       1  UNL1        0.0000
     43 H           7.0918    3.0071    5.9301 H       1  UNL1        0.0000
@<TRIPOS>BOND
     1     8     7    1
     2     6     5    1
     3     7     5   ar
     4     7     9   ar
     5    16    14    1
     6     5     4   ar
     7    10     9    1
     8     9    11   ar
     9    21    18    1
    10    14    15    1
    11    14    17    1
    12    14    12    1
    13    31    28    1
    14     4    12    1
    15     4     3   ar
    16    18    12    1
    17    18    20    1
    18    18    19    1
    19    12    13    1
    20    11     3   ar
    21    11    22    1
    22    26    24    1
    23     3     2    1
    24    28    29    1
    25    28    22    1
    26    28    30    1
    27    22    24    1
    28    22    23    1
    29    24    25    1
    30    24    27    1
    31     2     1    1
    32    35    32    1
    33    42    40    1
    34    32     1    1
    35    32    33    1
    36    32    34    1
    37     1    40    1
    38     1    36    1
    39    41    40    1
    40    40    43    1
    41    37    36    1
    42    36    38    1
    43    36    39    1
