@<TRIPOS>MOLECULE
1
 15 14 0 0 0
SMALL
GASTEIGER

@<TRIPOS>ATOM
      1 N          10.5357   10.1700    1.9759 N.3     1  UNL1       -0.2409
      2 C          11.6587   10.7919    2.6596 C.3     1  UNL1        0.0111
      3 C          12.7755   11.3120    1.7327 C.3     1  UNL1       -0.0510
      4 C           9.8351   11.0923    1.0931 C.3     1  UNL1        0.0111
      5 C           9.1843   12.2930    1.8108 C.3     1  UNL1       -0.0510
      6 H          12.1084   10.0478    3.3308 H       1  UNL1        0.0438
      7 H          11.3218   11.6357    3.2914 H       1  UNL1        0.0438
      8 H          13.6454   11.5832    2.3264 H       1  UNL1        0.0242
      9 H          12.4520   12.1937    1.1861 H       1  UNL1        0.0242
     10 H          13.0568   10.5415    1.0186 H       1  UNL1        0.0242
     11 H           9.0527   10.5167    0.5732 H       1  UNL1        0.0438
     12 H          10.5092   11.4976    0.3174 H       1  UNL1        0.0438
     13 H           8.4782   12.7835    1.1452 H       1  UNL1        0.0242
     14 H           9.9352   13.0233    2.1030 H       1  UNL1        0.0242
     15 H           8.6569   11.9606    2.7035 H       1  UNL1        0.0242
@<TRIPOS>BOND
     1    12     4    1
     2    11     4    1
     3    10     3    1
     4     4     5    1
     5     4     1    1
     6    13     5    1
     7     9     3    1
     8     3     8    1
     9     3     2    1
    10     5    14    1
    11     5    15    1
    12     1     2    1
    13     2     7    1
    14     2     6    1
