@<TRIPOS>MOLECULE
1
 15 14 0 0 0
SMALL
GASTEIGER

@<TRIPOS>ATOM
      1 N           7.8873    8.2878    1.8448 N.3     1  UNL1       -0.2409
      2 C           7.2154    9.3977    2.5105 C.3     1  UNL1        0.0111
      3 C           5.8340    9.0650    3.1052 C.3     1  UNL1       -0.0510
      4 C           7.0789    7.6513    0.8221 C.3     1  UNL1        0.0111
      5 C           6.6196    8.5878   -0.3140 C.3     1  UNL1       -0.0510
      6 H           7.8761    9.7317    3.3336 H       1  UNL1        0.0438
      7 H           7.0695   10.2578    1.8263 H       1  UNL1        0.0438
      8 H           5.5200    9.8678    3.7687 H       1  UNL1        0.0242
      9 H           5.8822    8.1379    3.6695 H       1  UNL1        0.0242
     10 H           5.0871    8.9611    2.3222 H       1  UNL1        0.0242
     11 H           6.1791    7.1908    1.2681 H       1  UNL1        0.0438
     12 H           7.6745    6.8375    0.3844 H       1  UNL1        0.0438
     13 H           6.1998    8.0023   -1.1280 H       1  UNL1        0.0242
     14 H           7.4664    9.1602   -0.6930 H       1  UNL1        0.0242
     15 H           5.8588    9.2818    0.0355 H       1  UNL1        0.0242
@<TRIPOS>BOND
     1    13     5    1
     2    14     5    1
     3     5    15    1
     4     5     4    1
     5    12     4    1
     6     4    11    1
     7     4     1    1
     8     7     2    1
     9     1     2    1
    10    10     3    1
    11     2     3    1
    12     2     6    1
    13     3     9    1
    14     3     8    1
