@<TRIPOS>MOLECULE
1
 15 14 0 0 0
SMALL
GASTEIGER

@<TRIPOS>ATOM
      1 N           2.0950   -0.5750    3.9479 N.3     1  UNL1       -0.2409
      2 C           2.2206   -1.5280    2.8608 C.3     1  UNL1        0.0111
      3 C           3.3201   -2.5961    3.0457 C.3     1  UNL1       -0.0510
      4 C           1.6729   -1.1921    5.1991 C.3     1  UNL1        0.0111
      5 C           0.2719   -1.8359    5.1413 C.3     1  UNL1       -0.0510
      6 H           2.4380   -0.9713    1.9417 H       1  UNL1        0.0438
      7 H           1.2667   -2.0568    2.6912 H       1  UNL1        0.0438
      8 H           3.4436   -3.1577    2.1225 H       1  UNL1        0.0242
      9 H           3.0566   -3.2968    3.8347 H       1  UNL1        0.0242
     10 H           4.2679   -2.1259    3.3005 H       1  UNL1        0.0242
     11 H           1.6606   -0.3983    5.9701 H       1  UNL1        0.0438
     12 H           2.3816   -1.9783    5.5332 H       1  UNL1        0.0438
     13 H          -0.0762   -2.0635    6.1465 H       1  UNL1        0.0242
     14 H           0.2931   -2.7637    4.5745 H       1  UNL1        0.0242
     15 H          -0.4294   -1.1533    4.6667 H       1  UNL1        0.0242
@<TRIPOS>BOND
     1     6     2    1
     2     8     3    1
     3     7     2    1
     4     2     3    1
     5     2     1    1
     6     3    10    1
     7     3     9    1
     8     1     4    1
     9    14     5    1
    10    15     5    1
    11     5     4    1
    12     5    13    1
    13     4    12    1
    14     4    11    1
