@<TRIPOS>MOLECULE
1
 9 8 0 0 0
SMALL
GASTEIGER

@<TRIPOS>ATOM
      1 N          -6.3190   20.8700    1.9028 N.3     1  UNL1       -0.2469
      2 C          -6.5588   20.9891    0.4754 C.3     1  UNL1        0.0021
      3 C          -5.5014   21.9739    2.3539 C.3     1  UNL1        0.0021
      4 H          -5.6193   21.1628   -0.0905 H       1  UNL1        0.0405
      5 H          -7.2172   21.8491    0.2521 H       1  UNL1        0.0405
      6 H          -7.0400   20.0779    0.0905 H       1  UNL1        0.0405
      7 H          -5.9916   22.9395    2.1403 H       1  UNL1        0.0405
      8 H          -4.5130   22.0014    1.8458 H       1  UNL1        0.0405
      9 H          -5.3448   21.9142    3.4345 H       1  UNL1        0.0405
@<TRIPOS>BOND
     1     4     2    1
     2     6     2    1
     3     5     2    1
     4     2     1    1
     5     8     3    1
     6     1     3    1
     7     7     3    1
     8     3     9    1
