@<TRIPOS>MOLECULE
1
 9 8 0 0 0
SMALL
GASTEIGER

@<TRIPOS>ATOM
      1 N          -7.9183   18.1449    1.8263 N.3     1  UNL1       -0.2469
      2 C          -8.3038   16.7519    1.7508 C.3     1  UNL1        0.0021
      3 C          -9.0968   18.9842    1.6977 C.3     1  UNL1        0.0021
      4 H          -8.9903   16.4697    2.5726 H       1  UNL1        0.0405
      5 H          -7.4252   16.1004    1.7981 H       1  UNL1        0.0405
      6 H          -8.8333   16.5372    0.8041 H       1  UNL1        0.0405
      7 H          -9.8937   18.6759    2.3983 H       1  UNL1        0.0405
      8 H          -9.5283   18.9163    0.6806 H       1  UNL1        0.0405
      9 H          -8.8388   20.0291    1.9078 H       1  UNL1        0.0405
@<TRIPOS>BOND
     1     8     3    1
     2     6     2    1
     3     3     1    1
     4     3     9    1
     5     3     7    1
     6     2     5    1
     7     2     1    1
     8     2     4    1
