@<TRIPOS>MOLECULE
1
 15 14 0 0 0
SMALL
GASTEIGER

@<TRIPOS>ATOM
      1 N           1.4527    2.1098    5.4494 N.3     1  UNL1       -0.2409
      2 C           1.6360    3.1631    6.4328 C.3     1  UNL1        0.0111
      3 C           1.9097    4.5453    5.8099 C.3     1  UNL1       -0.0510
      4 C           0.0717    1.9986    4.9999 C.3     1  UNL1        0.0111
      5 C          -0.8954    1.4474    6.0691 C.3     1  UNL1       -0.0510
      6 H           2.4797    2.9047    7.0921 H       1  UNL1        0.0438
      7 H           0.7478    3.2512    7.0755 H       1  UNL1        0.0438
      8 H           2.0061    5.2998    6.5882 H       1  UNL1        0.0242
      9 H           1.0940    4.8310    5.1487 H       1  UNL1        0.0242
     10 H           2.8311    4.5136    5.2282 H       1  UNL1        0.0242
     11 H           0.0606    1.3154    4.1343 H       1  UNL1        0.0438
     12 H          -0.3294    2.9744    4.6672 H       1  UNL1        0.0438
     13 H          -1.8452    1.1873    5.6089 H       1  UNL1        0.0242
     14 H          -1.0901    2.1852    6.8437 H       1  UNL1        0.0242
     15 H          -0.4734    0.5617    6.5363 H       1  UNL1        0.0242
@<TRIPOS>BOND
     1    11     4    1
     2    12     4    1
     3     4     1    1
     4     4     5    1
     5     9     3    1
     6    10     3    1
     7     1     2    1
     8    13     5    1
     9     3     2    1
    10     3     8    1
    11     5    15    1
    12     5    14    1
    13     2     7    1
    14     2     6    1
