@<TRIPOS>MOLECULE
1
 27 26 0 0 0
SMALL
GASTEIGER

@<TRIPOS>ATOM
      1 N           1.9163    4.0562    5.2341 N.3     1  UNL1        0.0000
      2 SI          0.7343    4.2565    6.4726 Si      1  UNL1        0.0000
      3 C           4.4024    3.9709    3.7279 C.3     1  UNL1        0.0000
      4 H           3.6929    3.4439    3.0673 H       1  UNL1        0.0000
      5 H           5.2373    3.3046    3.9230 H       1  UNL1        0.0000
      6 H           4.7909    4.8154    3.1696 H       1  UNL1        0.0000
      7 C          -0.9393    4.5589    5.5785 C.3     1  UNL1        0.0000
      8 H          -0.9413    5.5266    5.0809 H       1  UNL1        0.0000
      9 H          -1.7711    4.5536    6.2767 H       1  UNL1        0.0000
     10 H          -1.1324    3.7850    4.8281 H       1  UNL1        0.0000
     11 C           1.0269    5.6976    7.6873 C.3     1  UNL1        0.0000
     12 H           1.9509    5.5517    8.2352 H       1  UNL1        0.0000
     13 H           0.2226    5.7790    8.4110 H       1  UNL1        0.0000
     14 H           1.1000    6.6446    7.1650 H       1  UNL1        0.0000
     15 C           4.4985    3.7851    6.8270 C.3     1  UNL1        0.0000
     16 H           4.0019    4.0329    7.7584 H       1  UNL1        0.0000
     17 H           5.5151    4.1596    6.8868 H       1  UNL1        0.0000
     18 H           4.5500    2.7026    6.7628 H       1  UNL1        0.0000
     19 C           0.5538    2.6663    7.5401 C.3     1  UNL1        0.0000
     20 H           0.0813    1.8591    6.9876 H       1  UNL1        0.0000
     21 H          -0.0514    2.8530    8.4211 H       1  UNL1        0.0000
     22 H           1.5236    2.3156    7.8782 H       1  UNL1        0.0000
     23 C           3.8057    6.4557    5.4565 C.3     1  UNL1        0.0000
     24 H           3.1710    6.9737    4.7443 H       1  UNL1        0.0000
     25 H           4.8343    6.7351    5.2498 H       1  UNL1        0.0000
     26 H           3.5578    6.8249    6.4451 H       1  UNL1        0.0000
     27 SI          3.5535    4.5626    5.3539 Si      1  UNL1        0.0000
@<TRIPOS>BOND
     1     4     3    1
     2     6     3    1
     3     3     5    1
     4     3    27    1
     5    24    23    1
     6    10     7    1
     7     8     7    1
     8     1    27    1
     9     1     2    1
    10    25    23    1
    11    27    23    1
    12    27    15    1
    13    23    26    1
    14     7     9    1
    15     7     2    1
    16     2    19    1
    17     2    11    1
    18    18    15    1
    19    15    17    1
    20    15    16    1
    21    20    19    1
    22    14    11    1
    23    19    22    1
    24    19    21    1
    25    11    12    1
    26    11    13    1
