@<TRIPOS>MOLECULE
3
 27 26 0 0 0
SMALL
GASTEIGER

@<TRIPOS>ATOM
      1 SI         -0.0884    2.9778    2.2781 Si      1  UNL1        0.0000
      2 SI          2.7484    2.5779    1.4667 Si      1  UNL1        0.0000
      3 N           1.4896    2.4007    2.6319 N.3     1  UNL1        0.0000
      4 C          -1.1992    2.4533    3.7607 C.3     1  UNL1        0.0000
      5 H          -0.6029    1.9401    4.5285 H       1  UNL1        0.0000
      6 H          -2.0000    1.7905    3.4483 H       1  UNL1        0.0000
      7 H          -1.6645    3.3177    4.2222 H       1  UNL1        0.0000
      8 C          -0.2706    4.8793    2.1087 C.3     1  UNL1        0.0000
      9 H           0.3835    5.4017    2.8005 H       1  UNL1        0.0000
     10 H          -1.2886    5.2047    2.3029 H       1  UNL1        0.0000
     11 H          -0.0106    5.2047    1.1079 H       1  UNL1        0.0000
     12 C          -0.8638    2.2174    0.7001 C.3     1  UNL1        0.0000
     13 H          -0.2606    2.4626   -0.1666 H       1  UNL1        0.0000
     14 H          -1.8637    2.6010    0.5249 H       1  UNL1        0.0000
     15 H          -0.9319    1.1347    0.7521 H       1  UNL1        0.0000
     16 C           2.5820    4.0557    0.2694 C.3     1  UNL1        0.0000
     17 H           1.7054    3.9488   -0.3595 H       1  UNL1        0.0000
     18 H           3.4471    4.1319   -0.3818 H       1  UNL1        0.0000
     19 H           2.4902    4.9930    0.8062 H       1  UNL1        0.0000
     20 C           4.4069    2.8241    2.3869 C.3     1  UNL1        0.0000
     21 H           4.5569    3.8694    2.6397 H       1  UNL1        0.0000
     22 H           5.2486    2.5164    1.7747 H       1  UNL1        0.0000
     23 H           4.4242    2.2431    3.3110 H       1  UNL1        0.0000
     24 C           2.8770    1.0366    0.3232 C.3     1  UNL1        0.0000
     25 H           3.3747    0.2002    0.8033 H       1  UNL1        0.0000
     26 H           3.4371    1.2711   -0.5762 H       1  UNL1        0.0000
     27 H           1.8910    0.7028    0.0164 H       1  UNL1        0.0000
@<TRIPOS>BOND
     1    26    24    1
     2    18    16    1
     3    17    16    1
     4    13    12    1
     5    27    24    1
     6    16    19    1
     7    16     2    1
     8    24    25    1
     9    24     2    1
    10    14    12    1
    11    12    15    1
    12    12     1    1
    13    11     8    1
    14     2    20    1
    15     2     3    1
    16    22    20    1
    17     8     1    1
    18     8    10    1
    19     8     9    1
    20     1     3    1
    21     1     4    1
    22    20    21    1
    23    20    23    1
    24     6     4    1
    25     4     7    1
    26     4     5    1
