@<TRIPOS>MOLECULE
1
 23 24 0 0 0
SMALL
GASTEIGER

@<TRIPOS>ATOM
      1 N           9.3411    3.3219   26.2594 N.pl3   1  UNL1       -0.2150
      2 C          10.1052    4.2358   26.9442 C.ar    1  UNL1        0.0537
      3 C           9.5235    5.4522   27.3474 C.ar    1  UNL1       -0.0387
      4 C          10.2754    6.4218   27.9812 C.ar    1  UNL1       -0.0599
      5 C          11.6197    6.2080   28.2491 C.ar    1  UNL1       -0.0616
      6 C          12.2073    5.0129   27.8605 C.ar    1  UNL1       -0.0599
      7 C          11.4705    4.0393   27.2186 C.ar    1  UNL1       -0.0387
      8 C           9.5439    1.9756   26.4852 C.ar    1  UNL1        0.0537
      9 C           9.3404    1.0451   25.4537 C.ar    1  UNL1       -0.0387
     10 C           9.4587   -0.3103   25.6889 C.ar    1  UNL1       -0.0599
     11 C           9.7878   -0.7869   26.9487 C.ar    1  UNL1       -0.0616
     12 C          10.0115    0.1186   27.9736 C.ar    1  UNL1       -0.0599
     13 C           9.8970    1.4752   27.7520 C.ar    1  UNL1       -0.0387
     14 H           8.4605    5.6058   27.1461 H       1  UNL1        0.0637
     15 H           9.8075    7.3502   28.2788 H       1  UNL1        0.0618
     16 H          12.2037    6.9637   28.7526 H       1  UNL1        0.0618
     17 H          13.2570    4.8427   28.0543 H       1  UNL1        0.0618
     18 H          11.9416    3.1189   26.9011 H       1  UNL1        0.0637
     19 H           9.1075    1.4174   24.4644 H       1  UNL1        0.0637
     20 H           9.3012   -1.0066   24.8767 H       1  UNL1        0.0618
     21 H           9.8770   -1.8478   27.1279 H       1  UNL1        0.0618
     22 H          10.2759   -0.2377   28.9597 H       1  UNL1        0.0618
     23 H          10.0774    2.1659   28.5658 H       1  UNL1        0.0637
@<TRIPOS>BOND
     1    19     9    1
     2    20    10    1
     3     9    10   ar
     4     9     8   ar
     5    10    11   ar
     6     1     8    1
     7     1     2    1
     8     8    13   ar
     9    18     7    1
    10     2     7   ar
    11     2     3   ar
    12    11    21    1
    13    11    12   ar
    14    14     3    1
    15     7     6   ar
    16     3     4   ar
    17    13    12   ar
    18    13    23    1
    19     6    17    1
    20     6     5   ar
    21    12    22    1
    22     4     5   ar
    23     4    15    1
    24     5    16    1
