@<TRIPOS>MOLECULE
1
 11 11 0 0 0
SMALL
GASTEIGER

@<TRIPOS>ATOM
      1 N          12.7201    9.1905    3.8947 N.pl3   1  UNL1       -0.2487
      2 C          13.5845    9.4890    4.8780 C.3     1  UNL1        0.0840
      3 C          14.9193    9.1377    4.8344 C.2     1  UNL1       -0.0600
      4 C          15.3983    8.4190    3.7426 C.2     1  UNL1       -0.0626
      5 C          14.4935    8.0531    2.7563 C.2     1  UNL1       -0.0466
      6 C          13.1738    8.4540    2.8736 C.2     1  UNL1        0.0121
      7 H          13.1631   10.0405    5.7121 H       1  UNL1        0.0584
      8 H          15.5789    9.4199    5.6401 H       1  UNL1        0.0592
      9 H          16.4379    8.1401    3.6727 H       1  UNL1        0.0615
     10 H          14.8079    7.4664    1.9072 H       1  UNL1        0.0630
     11 H          12.4458    8.1723    2.1195 H       1  UNL1        0.0797
@<TRIPOS>BOND
     1    10     5    1
     2    11     6    1
     3     5     6    2
     4     5     4    1
     5     6     1    1
     6     9     4    1
     7     4     3    2
     8     1     2    1
     9     3     2    1
    10     3     8    1
    11     2     7    1
