@<TRIPOS>MOLECULE
1
 11 11 0 0 0
SMALL
GASTEIGER

@<TRIPOS>ATOM
      1 N          11.8815    8.2781   11.2619 N.pl3   1  UNL1       -0.2487
      2 C          10.7916    8.9603   10.9161 C.3     1  UNL1        0.0840
      3 C           9.7184    9.1574   11.7700 C.2     1  UNL1       -0.0600
      4 C           9.7732    8.6316   13.0528 C.2     1  UNL1       -0.0626
      5 C          10.9003    7.9124   13.4139 C.2     1  UNL1       -0.0466
      6 C          11.9178    7.7538   12.4845 C.2     1  UNL1        0.0121
      7 H          10.7794    9.3555    9.9079 H       1  UNL1        0.0584
      8 H           8.8548    9.7104   11.4350 H       1  UNL1        0.0592
      9 H           8.9577    8.7706   13.7468 H       1  UNL1        0.0615
     10 H          10.9861    7.4710   14.3950 H       1  UNL1        0.0630
     11 H          12.7857    7.1522   12.7262 H       1  UNL1        0.0797
@<TRIPOS>BOND
     1     7     2    1
     2     2     1    1
     3     2     3    1
     4     1     6    1
     5     8     3    1
     6     3     4    2
     7     6    11    1
     8     6     5    2
     9     4     5    1
    10     4     9    1
    11     5    10    1
