@<TRIPOS>MOLECULE
1
 9 8 0 0 0
SMALL
GASTEIGER

@<TRIPOS>ATOM
      1 N          -0.7480    2.0157    1.7384 N.3     1  UNL1       -0.2469
      2 C          -2.0667    2.4427    2.1439 C.3     1  UNL1        0.0021
      3 H          -2.7621    2.3868    1.2946 H       1  UNL1        0.0405
      4 H          -2.0644    3.4691    2.5073 H       1  UNL1        0.0405
      5 H          -2.4584    1.7850    2.9382 H       1  UNL1        0.0405
      6 C          -0.8654    0.7650    1.0140 C.3     1  UNL1        0.0021
      7 H          -1.2805   -0.0186    1.6701 H       1  UNL1        0.0405
      8 H           0.1055    0.4224    0.6434 H       1  UNL1        0.0405
      9 H          -1.5415    0.8859    0.1545 H       1  UNL1        0.0405
@<TRIPOS>BOND
     1     9     6    1
     2     8     6    1
     3     6     7    1
     4     6     1    1
     5     3     2    1
     6     1     2    1
     7     2     4    1
     8     2     5    1
