@<TRIPOS>MOLECULE
1
 19 19 0 0 0
SMALL
GASTEIGER

@<TRIPOS>ATOM
      1 N           4.7209    4.3506   10.6984 N.pl3   1  UNL1       -0.2486
      2 N           7.7694    5.7927    8.2127 N.pl3   1  UNL1       -0.3362
      3 C           4.4898    5.2697    9.7584 C.3     1  UNL1        0.0857
      4 H           3.4711    5.6191    9.6635 H       1  UNL1        0.0584
      5 C           5.4540    5.7779    8.9206 C.2     1  UNL1       -0.0389
      6 H           5.1626    6.5102    8.1877 H       1  UNL1        0.0610
      7 C           6.7864    5.3344    9.0229 C.2     1  UNL1        0.0283
      8 C           7.0226    4.3880   10.0382 C.2     1  UNL1       -0.0256
      9 H           8.0069    3.9898   10.2140 H       1  UNL1        0.0649
     10 C           5.9855    3.9422   10.8230 C.2     1  UNL1        0.0139
     11 H           6.1835    3.2073   11.5910 H       1  UNL1        0.0798
     12 C           7.4627    6.7195    7.1492 C.3     1  UNL1        0.0004
     13 H           6.7409    6.2925    6.4469 H       1  UNL1        0.0428
     14 H           8.3707    6.9585    6.6020 H       1  UNL1        0.0428
     15 H           7.0531    7.6504    7.5504 H       1  UNL1        0.0428
     16 C           9.1081    5.2633    8.3212 C.3     1  UNL1        0.0004
     17 H           9.5269    5.4641    9.3109 H       1  UNL1        0.0428
     18 H           9.7475    5.7374    7.5815 H       1  UNL1        0.0428
     19 H           9.1229    4.1836    8.1464 H       1  UNL1        0.0428
@<TRIPOS>BOND
     1    13    12    1
     2    14    12    1
     3    12    15    1
     4    12     2    1
     5    18    16    1
     6    19    16    1
     7     6     5    1
     8     2    16    1
     9     2     7    1
    10    16    17    1
    11     5     7    2
    12     5     3    1
    13     7     8    1
    14     4     3    1
    15     3     1    1
    16     8     9    1
    17     8    10    2
    18     1    10    1
    19    10    11    1
