@<TRIPOS>MOLECULE
1
 9 9 0 0 0
SMALL
GASTEIGER

@<TRIPOS>ATOM
      1 N           9.6277    8.2538    2.8624 N.ar    1  UNL1       -0.2633
      2 C           8.3816    8.7722    2.6724 C.ar    1  UNL1        0.0276
      3 H           7.4998    8.2207    2.9650 H       1  UNL1        0.0829
      4 C           8.4668   10.0125    2.0886 C.ar    1  UNL1       -0.0422
      5 H           7.6482   10.6542    1.8216 H       1  UNL1        0.0633
      6 C           9.8389   10.2763    1.9096 C.ar    1  UNL1       -0.0422
      7 H          10.2758   11.1580    1.4793 H       1  UNL1        0.0633
      8 C          10.5084    9.1799    2.3938 C.ar    1  UNL1        0.0276
      9 H          11.5742    9.0091    2.4226 H       1  UNL1        0.0829
@<TRIPOS>BOND
     1     7     6    1
     2     5     4    1
     3     6     4   ar
     4     6     8   ar
     5     4     2   ar
     6     8     9    1
     7     8     1   ar
     8     2     1   ar
     9     2     3    1
