@<TRIPOS>MOLECULE
1
 9 9 0 0 0
SMALL
GASTEIGER

@<TRIPOS>ATOM
      1 N           4.6984    0.0000    2.3415 N.ar    1  UNL1       -0.2633
      2 C           5.7639   -0.0000    3.1944 C.ar    1  UNL1        0.0276
      3 H           5.6245   -0.0000    4.2646 H       1  UNL1        0.0829
      4 C           6.9419   -0.0000    2.4924 C.ar    1  UNL1       -0.0422
      5 H           7.9344   -0.0001    2.9028 H       1  UNL1        0.0633
      6 C           6.5891   -0.0002    1.1282 C.ar    1  UNL1       -0.0422
      7 H           7.2590   -0.0003    0.2894 H       1  UNL1        0.0633
      8 C           5.2177   -0.0001    1.0799 C.ar    1  UNL1        0.0276
      9 H           4.5834   -0.0001    0.2078 H       1  UNL1        0.0829
@<TRIPOS>BOND
     1     9     8    1
     2     7     6    1
     3     8     6   ar
     4     8     1   ar
     5     6     4   ar
     6     1     2   ar
     7     4     5    1
     8     4     2   ar
     9     2     3    1
