@<TRIPOS>MOLECULE
1
 9 9 0 0 0
SMALL
GASTEIGER

@<TRIPOS>ATOM
      1 N          -0.9876    3.5774   -2.7973 N.ar    1  UNL1       -0.2633
      2 C          -0.8721    4.7062   -2.0463 C.ar    1  UNL1        0.0276
      3 H           0.0771    4.9734   -1.5983 H       1  UNL1        0.0829
      4 C          -2.0788    5.3598   -1.9962 C.ar    1  UNL1       -0.0422
      5 H          -2.2942    6.2779   -1.4827 H       1  UNL1        0.0633
      6 C          -2.9835    4.5904   -2.7610 C.ar    1  UNL1       -0.0422
      7 H          -4.0200    4.8090   -2.9367 H       1  UNL1        0.0633
      8 C          -2.2773    3.5107   -3.2288 C.ar    1  UNL1        0.0276
      9 H          -2.6068    2.6880   -3.8559 H       1  UNL1        0.0829
@<TRIPOS>BOND
     1     9     8    1
     2     8     1   ar
     3     8     6   ar
     4     7     6    1
     5     1     2   ar
     6     6     4   ar
     7     2     4   ar
     8     2     3    1
     9     4     5    1
