@<TRIPOS>MOLECULE
3
 27 26 0 0 0
SMALL
GASTEIGER

@<TRIPOS>ATOM
      1 SI          4.5267    9.5078    1.9897 Si      1  UNL1        0.0000
      2 SI          6.0099   10.0639   -0.5299 Si      1  UNL1        0.0000
      3 N           6.0008    9.8974    1.1903 N.3     1  UNL1        0.0000
      4 C           3.4750    8.1543    1.1336 C.3     1  UNL1        0.0000
      5 H           3.2487    8.4251    0.1088 H       1  UNL1        0.0000
      6 H           2.5318    7.9982    1.6483 H       1  UNL1        0.0000
      7 H           3.9983    7.2035    1.1114 H       1  UNL1        0.0000
      8 C           3.3810   11.0361    2.2021 C.3     1  UNL1        0.0000
      9 H           3.9175   11.8933    2.5974 H       1  UNL1        0.0000
     10 H           2.5559   10.8229    2.8749 H       1  UNL1        0.0000
     11 H           2.9582   11.3323    1.2495 H       1  UNL1        0.0000
     12 C           4.8022    8.8398    3.7734 C.3     1  UNL1        0.0000
     13 H           5.7907    8.4105    3.9024 H       1  UNL1        0.0000
     14 H           4.0786    8.0589    3.9826 H       1  UNL1        0.0000
     15 H           4.6617    9.6105    4.5242 H       1  UNL1        0.0000
     16 C           7.4956   11.1921   -0.9839 C.3     1  UNL1        0.0000
     17 H           7.2481   12.2434   -0.8759 H       1  UNL1        0.0000
     18 H           7.8067   11.0347   -2.0118 H       1  UNL1        0.0000
     19 H           8.3538   10.9732   -0.3400 H       1  UNL1        0.0000
     20 C           6.2679    8.3860   -1.4185 C.3     1  UNL1        0.0000
     21 H           7.1920    7.9253   -1.0807 H       1  UNL1        0.0000
     22 H           6.3239    8.5017   -2.4967 H       1  UNL1        0.0000
     23 H           5.4562    7.6988   -1.2049 H       1  UNL1        0.0000
     24 C           4.4779   10.9162   -1.2978 C.3     1  UNL1        0.0000
     25 H           3.5827   10.3231   -1.1545 H       1  UNL1        0.0000
     26 H           4.6061   11.0657   -2.3650 H       1  UNL1        0.0000
     27 H           4.3035   11.8872   -0.8474 H       1  UNL1        0.0000
@<TRIPOS>BOND
     1    22    20    1
     2    26    24    1
     3    18    16    1
     4    20    23    1
     5    20    21    1
     6    20     2    1
     7    24    25    1
     8    24    27    1
     9    24     2    1
    10    16    17    1
    11    16     2    1
    12    16    19    1
    13     2     3    1
    14     5     4    1
    15     7     4    1
    16     4     6    1
    17     4     1    1
    18     3     1    1
    19    11     8    1
    20     1     8    1
    21     1    12    1
    22     8     9    1
    23     8    10    1
    24    12    13    1
    25    12    14    1
    26    12    15    1
