@<TRIPOS>MOLECULE
3
 27 26 0 0 0
SMALL
GASTEIGER

@<TRIPOS>ATOM
      1 SI         10.6023    8.7023   -0.2939 Si      1  UNL1        0.0000
      2 SI          9.0415    6.6415    1.2029 Si      1  UNL1        0.0000
      3 N           9.3707    8.2913    0.8431 N.3     1  UNL1        0.0000
      4 C          10.0882    8.4338   -2.1237 C.3     1  UNL1        0.0000
      5 H           9.8992    7.3861   -2.3275 H       1  UNL1        0.0000
      6 H          10.8707    8.7638   -2.8006 H       1  UNL1        0.0000
      7 H           9.1850    8.9818   -2.3698 H       1  UNL1        0.0000
      8 C          11.0767   10.5531   -0.1162 C.3     1  UNL1        0.0000
      9 H          10.5363   11.0427    0.6931 H       1  UNL1        0.0000
     10 H          10.8794   11.0992   -1.0335 H       1  UNL1        0.0000
     11 H          12.1361   10.6574    0.0947 H       1  UNL1        0.0000
     12 C          12.2220    7.7055   -0.0519 C.3     1  UNL1        0.0000
     13 H          12.5965    7.8003    0.9618 H       1  UNL1        0.0000
     14 H          13.0020    8.0441   -0.7266 H       1  UNL1        0.0000
     15 H          12.0588    6.6507   -0.2414 H       1  UNL1        0.0000
     16 C           9.0257    5.4218   -0.2723 C.3     1  UNL1        0.0000
     17 H           8.2649    5.6833   -0.9998 H       1  UNL1        0.0000
     18 H           8.8289    4.4065    0.0584 H       1  UNL1        0.0000
     19 H           9.9822    5.4206   -0.7827 H       1  UNL1        0.0000
     20 C          10.3016    5.8925    2.4587 C.3     1  UNL1        0.0000
     21 H          11.1375    5.4409    1.9364 H       1  UNL1        0.0000
     22 H           9.8504    5.1219    3.0771 H       1  UNL1        0.0000
     23 H          10.7104    6.6573    3.1122 H       1  UNL1        0.0000
     24 C           7.3046    6.5383    2.0105 C.3     1  UNL1        0.0000
     25 H           7.3432    6.7189    3.0814 H       1  UNL1        0.0000
     26 H           6.8699    5.5540    1.8658 H       1  UNL1        0.0000
     27 H           6.6276    7.2643    1.5650 H       1  UNL1        0.0000
@<TRIPOS>BOND
     1     6     4    1
     2     7     4    1
     3     5     4    1
     4     4     1    1
     5    10     8    1
     6    17    16    1
     7    19    16    1
     8    14    12    1
     9     1     8    1
    10     1    12    1
    11     1     3    1
    12    16    18    1
    13    16     2    1
    14    15    12    1
    15     8    11    1
    16     8     9    1
    17    12    13    1
    18     3     2    1
    19     2    24    1
    20     2    20    1
    21    27    24    1
    22    26    24    1
    23    21    20    1
    24    24    25    1
    25    20    22    1
    26    20    23    1
