@<TRIPOS>MOLECULE
3
 27 26 0 0 0
SMALL
GASTEIGER

@<TRIPOS>ATOM
      1 SI         10.7461   11.6537    3.5617 Si      1  UNL1        0.0000
      2 SI          8.6492   13.3454    2.2335 Si      1  UNL1        0.0000
      3 N           9.2517   11.8054    2.7232 N.3     1  UNL1        0.0000
      4 C          11.3752    9.8420    3.4773 C.3     1  UNL1        0.0000
      5 H          10.7553    9.2325    2.8179 H       1  UNL1        0.0000
      6 H          11.3879    9.3751    4.4582 H       1  UNL1        0.0000
      7 H          12.3886    9.8077    3.0913 H       1  UNL1        0.0000
      8 C          10.6076   12.0597    5.4460 C.3     1  UNL1        0.0000
      9 H          10.0927   12.9995    5.6095 H       1  UNL1        0.0000
     10 H          11.5944   12.1505    5.8883 H       1  UNL1        0.0000
     11 H          10.0788   11.2869    5.9956 H       1  UNL1        0.0000
     12 C          12.1709   12.7713    2.9427 C.3     1  UNL1        0.0000
     13 H          12.3630   12.6143    1.8872 H       1  UNL1        0.0000
     14 H          13.0950   12.5772    3.4788 H       1  UNL1        0.0000
     15 H          11.9272   13.8192    3.0776 H       1  UNL1        0.0000
     16 C           9.4843   14.0558    0.6584 C.3     1  UNL1        0.0000
     17 H          10.5317   14.2695    0.8425 H       1  UNL1        0.0000
     18 H           9.0116   14.9817    0.3438 H       1  UNL1        0.0000
     19 H           9.4359   13.3622   -0.1744 H       1  UNL1        0.0000
     20 C           6.7602   13.2155    1.9221 C.3     1  UNL1        0.0000
     21 H           6.4527   12.1996    1.6723 H       1  UNL1        0.0000
     22 H           6.4690   13.8554    1.0957 H       1  UNL1        0.0000
     23 H           6.1883   13.5404    2.7863 H       1  UNL1        0.0000
     24 C           8.8474   14.7304    3.5511 C.3     1  UNL1        0.0000
     25 H           8.2917   14.5254    4.4616 H       1  UNL1        0.0000
     26 H           8.4932   15.6810    3.1661 H       1  UNL1        0.0000
     27 H           9.8884   14.8559    3.8250 H       1  UNL1        0.0000
@<TRIPOS>BOND
     1    19    16    1
     2    18    16    1
     3    16    17    1
     4    16     2    1
     5    22    20    1
     6    21    20    1
     7    13    12    1
     8    20     2    1
     9    20    23    1
    10     2     3    1
    11     2    24    1
    12     3     1    1
    13     5     4    1
    14    12    15    1
    15    12    14    1
    16    12     1    1
    17     7     4    1
    18    26    24    1
    19     4     1    1
    20     4     6    1
    21    24    27    1
    22    24    25    1
    23     1     8    1
    24     8     9    1
    25     8    10    1
    26     8    11    1
