@<TRIPOS>MOLECULE
3
 27 26 0 0 0
SMALL
GASTEIGER

@<TRIPOS>ATOM
      1 SI         -1.6390    3.3986    3.6062 Si      1  UNL1        0.0000
      2 SI         -1.4951    6.1662    4.7182 Si      1  UNL1        0.0000
      3 N          -0.8837    4.5544    4.6446 N.3     1  UNL1        0.0000
      4 C          -0.8792    1.6547    3.8659 C.3     1  UNL1        0.0000
      5 H          -0.1698    1.6443    4.6920 H       1  UNL1        0.0000
      6 H          -0.3581    1.3005    2.9821 H       1  UNL1        0.0000
      7 H          -1.6485    0.9218    4.0882 H       1  UNL1        0.0000
      8 C          -1.4732    3.8414    1.7448 C.3     1  UNL1        0.0000
      9 H          -2.1327    4.6662    1.4973 H       1  UNL1        0.0000
     10 H          -1.7561    3.0014    1.1188 H       1  UNL1        0.0000
     11 H          -0.4667    4.1353    1.4632 H       1  UNL1        0.0000
     12 C          -3.5284    3.1322    3.8289 C.3     1  UNL1        0.0000
     13 H          -3.8267    3.0581    4.8698 H       1  UNL1        0.0000
     14 H          -3.8457    2.2196    3.3329 H       1  UNL1        0.0000
     15 H          -4.0901    3.9480    3.3905 H       1  UNL1        0.0000
     16 C          -0.8636    6.9979    6.3266 C.3     1  UNL1        0.0000
     17 H          -0.1737    6.3486    6.8651 H       1  UNL1        0.0000
     18 H          -1.6882    7.2208    6.9965 H       1  UNL1        0.0000
     19 H          -0.3598    7.9381    6.1220 H       1  UNL1        0.0000
     20 C          -3.3985    6.3834    4.7590 C.3     1  UNL1        0.0000
     21 H          -3.8256    6.1984    3.7801 H       1  UNL1        0.0000
     22 H          -3.6601    7.3994    5.0387 H       1  UNL1        0.0000
     23 H          -3.8866    5.7173    5.4618 H       1  UNL1        0.0000
     24 C          -0.9967    7.2824    3.2293 C.3     1  UNL1        0.0000
     25 H           0.0461    7.5832    3.2268 H       1  UNL1        0.0000
     26 H          -1.5913    8.1905    3.2330 H       1  UNL1        0.0000
     27 H          -1.1904    6.7748    2.2909 H       1  UNL1        0.0000
@<TRIPOS>BOND
     1    10     8    1
     2    11     8    1
     3     9     8    1
     4     8     1    1
     5    27    24    1
     6     6     4    1
     7    25    24    1
     8    24    26    1
     9    24     2    1
    10    14    12    1
    11    15    12    1
    12     1    12    1
    13     1     4    1
    14     1     3    1
    15    21    20    1
    16    12    13    1
    17     4     7    1
    18     4     5    1
    19     3     2    1
    20     2    20    1
    21     2    16    1
    22    20    22    1
    23    20    23    1
    24    19    16    1
    25    16    17    1
    26    16    18    1
