@<TRIPOS>MOLECULE
1
 9 8 0 0 0
SMALL
GASTEIGER

@<TRIPOS>ATOM
      1 N           1.8926    4.0019    6.4579 N.3     1  UNL1       -0.2469
      2 C           2.0301    4.1479    7.8902 C.3     1  UNL1        0.0021
      3 H           2.0663    3.1685    8.4007 H       1  UNL1        0.0405
      4 H           1.1897    4.7106    8.3093 H       1  UNL1        0.0405
      5 H           2.9661    4.6737    8.1641 H       1  UNL1        0.0405
      6 C           3.0591    3.3312    5.9208 C.3     1  UNL1        0.0021
      7 H           3.9951    3.8823    6.1460 H       1  UNL1        0.0405
      8 H           2.9674    3.2307    4.8307 H       1  UNL1        0.0405
      9 H           3.1867    2.3204    6.3535 H       1  UNL1        0.0405
@<TRIPOS>BOND
     1     8     6    1
     2     6     7    1
     3     6     9    1
     4     6     1    1
     5     1     2    1
     6     2     5    1
     7     2     4    1
     8     2     3    1
