@<TRIPOS>MOLECULE
1
 9 8 0 0 0
SMALL
GASTEIGER

@<TRIPOS>ATOM
      1 N           3.9574    8.0071    5.8846 N.3     1  UNL1       -0.2469
      2 C           2.5239    8.0723    5.7130 C.3     1  UNL1        0.0021
      3 H           2.0931    7.1041    5.3899 H       1  UNL1        0.0405
      4 H           2.2628    8.8236    4.9639 H       1  UNL1        0.0405
      5 H           2.0148    8.3370    6.6627 H       1  UNL1        0.0405
      6 C           4.2747    6.9347    6.8055 C.3     1  UNL1        0.0021
      7 H           3.8006    7.1014    7.7943 H       1  UNL1        0.0405
      8 H           5.3573    6.8647    6.9466 H       1  UNL1        0.0405
      9 H           3.9092    5.9549    6.4446 H       1  UNL1        0.0405
@<TRIPOS>BOND
     1     4     2    1
     2     3     2    1
     3     2     1    1
     4     2     5    1
     5     1     6    1
     6     9     6    1
     7     6     8    1
     8     6     7    1
