@<TRIPOS>MOLECULE
1
 9 8 0 0 0
SMALL
GASTEIGER

@<TRIPOS>ATOM
      1 N           6.5359    9.6773    6.1055 N.3     1  UNL1       -0.2469
      2 C           6.2783    9.6640    7.5317 C.3     1  UNL1        0.0021
      3 H           7.0738    9.1340    8.0953 H       1  UNL1        0.0405
      4 H           5.3191    9.1848    7.7364 H       1  UNL1        0.0405
      5 H           6.2432   10.6914    7.9432 H       1  UNL1        0.0405
      6 C           7.6928   10.5051    5.8436 C.3     1  UNL1        0.0021
      7 H           7.5390   11.5454    6.1997 H       1  UNL1        0.0405
      8 H           7.8976   10.5408    4.7703 H       1  UNL1        0.0405
      9 H           8.6004   10.1348    6.3631 H       1  UNL1        0.0405
@<TRIPOS>BOND
     1     8     6    1
     2     6     1    1
     3     6     7    1
     4     6     9    1
     5     1     2    1
     6     2     4    1
     7     2     5    1
     8     2     3    1
