@<TRIPOS>MOLECULE
1
 9 8 0 0 0
SMALL
GASTEIGER

@<TRIPOS>ATOM
      1 N          -1.2682    5.4546    5.0526 N.3     1  UNL1       -0.2469
      2 C          -1.9597    6.2432    6.0481 C.3     1  UNL1        0.0021
      3 H          -1.7888    7.3291    5.9145 H       1  UNL1        0.0405
      4 H          -1.6461    5.9661    7.0587 H       1  UNL1        0.0405
      5 H          -3.0539    6.0936    5.9821 H       1  UNL1        0.0405
      6 C          -1.5473    6.0017    3.7399 C.3     1  UNL1        0.0021
      7 H          -2.6358    6.0618    3.5564 H       1  UNL1        0.0405
      8 H          -1.1085    5.3580    2.9687 H       1  UNL1        0.0405
      9 H          -1.1467    7.0323    3.6212 H       1  UNL1        0.0405
@<TRIPOS>BOND
     1     8     6    1
     2     7     6    1
     3     9     6    1
     4     6     1    1
     5     1     2    1
     6     3     2    1
     7     5     2    1
     8     2     4    1
