@<TRIPOS>MOLECULE
3
 27 26 0 0 0
SMALL
GASTEIGER

@<TRIPOS>ATOM
      1 SI          4.5786    6.0784    2.9277 Si      1  UNL1        0.0000
      2 SI          7.1843    5.8018    4.4864 Si      1  UNL1        0.0000
      3 N           5.8685    6.6988    3.8657 N.3     1  UNL1        0.0000
      4 C           3.5248    7.6052    2.4133 C.3     1  UNL1        0.0000
      5 H           2.4610    7.4129    2.5257 H       1  UNL1        0.0000
      6 H           3.6914    7.8723    1.3722 H       1  UNL1        0.0000
      7 H           3.7965    8.4653    3.0404 H       1  UNL1        0.0000
      8 C           5.0894    5.1400    1.3269 C.3     1  UNL1        0.0000
      9 H           5.7626    5.7107    0.6984 H       1  UNL1        0.0000
     10 H           4.2188    4.8886    0.7298 H       1  UNL1        0.0000
     11 H           5.5859    4.2099    1.5811 H       1  UNL1        0.0000
     12 C           3.4134    4.7938    3.7661 C.3     1  UNL1        0.0000
     13 H           3.9844    3.9479    4.1335 H       1  UNL1        0.0000
     14 H           2.6814    4.4108    3.0610 H       1  UNL1        0.0000
     15 H           2.8696    5.2101    4.6074 H       1  UNL1        0.0000
     16 C           8.4354    5.1584    3.1716 C.3     1  UNL1        0.0000
     17 H           7.9189    4.7493    2.3106 H       1  UNL1        0.0000
     18 H           9.0609    4.3714    3.5814 H       1  UNL1        0.0000
     19 H           9.0957    5.9436    2.8179 H       1  UNL1        0.0000
     20 C           6.7418    4.2389    5.5149 C.3     1  UNL1        0.0000
     21 H           5.9397    4.4323    6.2191 H       1  UNL1        0.0000
     22 H           7.5959    3.8749    6.0779 H       1  UNL1        0.0000
     23 H           6.4181    3.4358    4.8610 H       1  UNL1        0.0000
     24 C           8.1394    7.0283    5.6075 C.3     1  UNL1        0.0000
     25 H           8.2214    7.9920    5.1013 H       1  UNL1        0.0000
     26 H           9.1419    6.6774    5.8382 H       1  UNL1        0.0000
     27 H           7.6209    7.1853    6.5525 H       1  UNL1        0.0000
@<TRIPOS>BOND
     1     9     8    1
     2    10     8    1
     3     8    11    1
     4     8     1    1
     5     6     4    1
     6    17    16    1
     7     4     5    1
     8     4     1    1
     9     4     7    1
    10    19    16    1
    11     1    12    1
    12     1     3    1
    13    14    12    1
    14    16    18    1
    15    16     2    1
    16    12    13    1
    17    12    15    1
    18     3     2    1
    19     2    20    1
    20     2    24    1
    21    23    20    1
    22    25    24    1
    23    20    22    1
    24    20    21    1
    25    24    26    1
    26    24    27    1
