@<TRIPOS>MOLECULE
1
 11 11 0 0 0
SMALL
GASTEIGER

@<TRIPOS>ATOM
      1 N           5.5766   15.6806    7.9169 N.pl3   1  UNL1       -0.2487
      2 C           6.7488   16.2452    7.6341 C.3     1  UNL1        0.0840
      3 H           6.6986   17.2334    7.1941 H       1  UNL1        0.0584
      4 C           7.9651   15.6191    7.8597 C.2     1  UNL1       -0.0600
      5 H           8.8868   16.1102    7.5926 H       1  UNL1        0.0592
      6 C           7.9677   14.3666    8.4515 C.2     1  UNL1       -0.0626
      7 H           8.8960   13.8548    8.6558 H       1  UNL1        0.0615
      8 C           6.7510   13.7840    8.7732 C.2     1  UNL1       -0.0466
      9 H           6.7056   12.8126    9.2400 H       1  UNL1        0.0630
     10 C           5.5858   14.4731    8.4813 C.2     1  UNL1        0.0121
     11 H           4.6070   14.0504    8.6827 H       1  UNL1        0.0797
@<TRIPOS>BOND
     1     3     2    1
     2     5     4    1
     3     2     4    1
     4     2     1    1
     5     4     6    2
     6     1    10    1
     7     6     7    1
     8     6     8    1
     9    10    11    1
    10    10     8    2
    11     8     9    1
