@<TRIPOS>MOLECULE
2
 39 41 0 0 0
SMALL
GASTEIGER

@<TRIPOS>ATOM
      1 SI          4.7293    2.1482   17.1276 Si      1  UNL1        0.0000
      2 N           4.4789    3.4785   18.1660 N.3     1  UNL1        0.0000
      3 H           5.0412    3.3424   19.0043 H       1  UNL1        0.0000
      4 C           5.9786    0.9392   17.9039 C.ar    1  UNL1        0.0000
      5 C           5.8887    0.6137   19.2527 C.ar    1  UNL1        0.0000
      6 H           5.1065    1.0569   19.8511 H       1  UNL1        0.0000
      7 C           6.7800   -0.2627   19.8438 C.ar    1  UNL1        0.0000
      8 H           6.6883   -0.4963   20.8951 H       1  UNL1        0.0000
      9 C           7.7869   -0.8387   19.0881 C.ar    1  UNL1        0.0000
     10 H           8.4861   -1.5253   19.5441 H       1  UNL1        0.0000
     11 C           7.8922   -0.5293   17.7428 C.ar    1  UNL1        0.0000
     12 H           8.6759   -0.9746   17.1458 H       1  UNL1        0.0000
     13 C           6.9963    0.3506   17.1619 C.ar    1  UNL1        0.0000
     14 H           7.0918    0.5896   16.1116 H       1  UNL1        0.0000
     15 C           5.5245    2.6136   15.4585 C.ar    1  UNL1        0.0000
     16 C           6.5641    3.5358   15.4544 C.ar    1  UNL1        0.0000
     17 H           6.8537    3.9940   16.3858 H       1  UNL1        0.0000
     18 C           7.2344    3.8676   14.2942 C.ar    1  UNL1        0.0000
     19 H           8.0390    4.5878   14.3043 H       1  UNL1        0.0000
     20 C           6.8635    3.2646   13.0999 C.ar    1  UNL1        0.0000
     21 C           5.8459    2.3214   13.0797 C.ar    1  UNL1        0.0000
     22 H           5.5716    1.8457   12.1496 H       1  UNL1        0.0000
     23 C           5.1913    2.0057   14.2555 C.ar    1  UNL1        0.0000
     24 H           4.4108    1.2603   14.2330 H       1  UNL1        0.0000
     25 C           3.1240    1.1597   16.8672 C.ar    1  UNL1        0.0000
     26 C           1.9223    1.6408   17.3715 C.ar    1  UNL1        0.0000
     27 H           1.9302    2.5894   17.9033 H       1  UNL1        0.0000
     28 C           0.7417    0.9369   17.2216 C.ar    1  UNL1        0.0000
     29 H          -0.1831    1.3349   17.6168 H       1  UNL1        0.0000
     30 C           0.7464   -0.2834   16.5666 C.ar    1  UNL1        0.0000
     31 H          -0.1723   -0.8398   16.4442 H       1  UNL1        0.0000
     32 C           1.9378   -0.7929   16.0785 C.ar    1  UNL1        0.0000
     33 H           1.9496   -1.7520   15.5797 H       1  UNL1        0.0000
     34 C           3.1128   -0.0784   16.2327 C.ar    1  UNL1        0.0000
     35 H           4.0404   -0.4960   15.8651 H       1  UNL1        0.0000
     36 C           7.5821    3.6146   11.8343 C.3     1  UNL1        0.0000
     37 F           8.6501    2.8192   11.6047 F       1  UNL1        0.0000
     38 F           6.8067    3.5078   10.7405 F       1  UNL1        0.0000
     39 F           8.0579    4.8729   11.8300 F       1  UNL1        0.0000
@<TRIPOS>BOND
     1    38    36    1
     2    37    36    1
     3    39    36    1
     4    36    20    1
     5    22    21    1
     6    21    20   ar
     7    21    23   ar
     8    20    18   ar
     9    24    23    1
    10    23    15   ar
    11    18    19    1
    12    18    16   ar
    13    16    15   ar
    14    16    17    1
    15    15     1    1
    16    33    32    1
    17    35    34    1
    18    32    34   ar
    19    32    30   ar
    20    14    13    1
    21    34    25   ar
    22    31    30    1
    23    30    28   ar
    24    25     1    1
    25    25    26   ar
    26     1     4    1
    27     1     2    1
    28    12    11    1
    29    13    11   ar
    30    13     4   ar
    31    28    26   ar
    32    28    29    1
    33    26    27    1
    34    11     9   ar
    35     4     5   ar
    36     2     3    1
    37     9    10    1
    38     9     7   ar
    39     5     7   ar
    40     5     6    1
    41     7     8    1
