@<TRIPOS>MOLECULE
1
 11 11 0 0 0
SMALL
GASTEIGER

@<TRIPOS>ATOM
      1 N           1.7083    7.7623    9.8382 N.pl3   1  UNL1       -0.2487
      2 C           2.0026    6.7024    9.0865 C.3     1  UNL1        0.0840
      3 H           1.5959    6.7121    8.0805 H       1  UNL1        0.0584
      4 C           2.7963    5.6587    9.5331 C.2     1  UNL1       -0.0600
      5 H           2.9995    4.8192    8.8870 H       1  UNL1        0.0592
      6 C           3.3215    5.7175   10.8147 C.2     1  UNL1       -0.0626
      7 H           3.9398    4.9191   11.1969 H       1  UNL1        0.0615
      8 C           3.0416    6.8322   11.5872 C.2     1  UNL1       -0.0466
      9 H           3.4404    6.9330   12.5844 H       1  UNL1        0.0630
     10 C           2.2310    7.8247   11.0594 C.2     1  UNL1        0.0121
     11 H           1.9973    8.7121   11.6366 H       1  UNL1        0.0797
@<TRIPOS>BOND
     1     3     2    1
     2     5     4    1
     3     2     4    1
     4     2     1    1
     5     4     6    2
     6     1    10    1
     7     6     7    1
     8     6     8    1
     9    10     8    2
    10    10    11    1
    11     8     9    1
