@<TRIPOS>MOLECULE
5
 35 36 0 0 0
SMALL
GASTEIGER

@<TRIPOS>ATOM
      1 SI         -0.0007    5.2642    5.3924 Si      1  UNL1        0.0000
      2 SI          1.1991    4.9357    2.5102 Si      1  UNL1        0.0000
      3 O          -2.1957    4.4963    3.8911 O.2     1  UNL1        0.0000
      4 O           0.0510    7.3200    1.8439 O.2     1  UNL1        0.0000
      5 N           0.7210    5.8296    3.9148 N.3     1  UNL1        0.0000
      6 C          -3.1030    3.5342    3.6784 C.ar    1  UNL1        0.0000
      7 H          -3.8268    3.6977    2.9038 H       1  UNL1        0.0000
      8 C          -2.9134    2.4945    4.5365 C.ar    1  UNL1        0.0000
      9 H          -3.4878    1.5927    4.5943 H       1  UNL1        0.0000
     10 C          -1.8024    2.8566    5.3306 C.ar    1  UNL1        0.0000
     11 H          -1.3604    2.2848    6.1199 H       1  UNL1        0.0000
     12 C          -1.3921    4.0894    4.9032 C.ar    1  UNL1        0.0000
     13 C           1.2829    4.3724    6.4855 C.3     1  UNL1        0.0000
     14 H           0.8686    4.1194    7.4552 H       1  UNL1        0.0000
     15 H           2.1439    5.0153    6.6478 H       1  UNL1        0.0000
     16 H           1.6331    3.4551    6.0222 H       1  UNL1        0.0000
     17 C          -0.7625    6.8032    6.2334 C.3     1  UNL1        0.0000
     18 H          -1.4343    7.3246    5.5493 H       1  UNL1        0.0000
     19 H           0.0140    7.5014    6.5486 H       1  UNL1        0.0000
     20 H          -1.3369    6.5302    7.1139 H       1  UNL1        0.0000
     21 C           0.4564    3.2063    2.2461 C.3     1  UNL1        0.0000
     22 H          -0.6122    3.2456    2.0703 H       1  UNL1        0.0000
     23 H           0.6257    2.5811    3.1151 H       1  UNL1        0.0000
     24 H           0.9154    2.7230    1.3913 H       1  UNL1        0.0000
     25 C           3.1162    4.8876    2.4711 C.3     1  UNL1        0.0000
     26 H           3.5231    5.5948    3.1990 H       1  UNL1        0.0000
     27 H           3.5025    5.1602    1.4930 H       1  UNL1        0.0000
     28 H           3.4994    3.9009    2.7130 H       1  UNL1        0.0000
     29 C           0.5082    6.1824    1.2388 C.ar    1  UNL1        0.0000
     30 C           0.3813    6.3254   -0.1117 C.ar    1  UNL1        0.0000
     31 H           0.6498    5.6002   -0.8528 H       1  UNL1        0.0000
     32 C          -0.1694    7.6101   -0.3477 C.ar    1  UNL1        0.0000
     33 H          -0.3995    8.0468   -1.2984 H       1  UNL1        0.0000
     34 C          -0.3435    8.1737    0.8760 C.ar    1  UNL1        0.0000
     35 H          -0.7306    9.1291    1.1854 H       1  UNL1        0.0000
@<TRIPOS>BOND
     1    33    32    1
     2    31    30    1
     3    32    30   ar
     4    32    34   ar
     5    30    29   ar
     6    34    35    1
     7    34     4   ar
     8    29     4   ar
     9    29     2    1
    10    24    21    1
    11    27    25    1
    12    22    21    1
    13    21     2    1
    14    21    23    1
    15    25     2    1
    16    25    28    1
    17    25    26    1
    18     2     5    1
    19     7     6    1
    20     6     3   ar
    21     6     8   ar
    22     3    12   ar
    23     5     1    1
    24     8     9    1
    25     8    10   ar
    26    12    10   ar
    27    12     1    1
    28    10    11    1
    29     1    17    1
    30     1    13    1
    31    18    17    1
    32    16    13    1
    33    17    19    1
    34    17    20    1
    35    13    15    1
    36    13    14    1
