@<TRIPOS>MOLECULE
5
 41 42 0 0 0
SMALL
GASTEIGER

@<TRIPOS>ATOM
      1 SI         -6.7503    9.0689   25.3098 Si      1  UNL1        0.0000
      2 SI         -7.5094    9.3008   28.2940 Si      1  UNL1        0.0000
      3 O          -6.3074   10.9905   23.2713 O.2     1  UNL1        0.0000
      4 O          -8.2944    6.8054   27.4266 O.2     1  UNL1        0.0000
      5 N          -6.7969    9.9275   26.8222 N.3     1  UNL1        0.0000
      6 C          -5.9226   12.8802   21.7831 C.3     1  UNL1        0.0000
      7 H          -5.1169   13.5597   21.5234 H       1  UNL1        0.0000
      8 H          -6.8083   13.4606   22.0410 H       1  UNL1        0.0000
      9 H          -6.1653   12.2559   20.9252 H       1  UNL1        0.0000
     10 C          -5.5247   12.0372   22.9399 C.ar    1  UNL1        0.0000
     11 C          -4.4736   12.1251   23.8096 C.ar    1  UNL1        0.0000
     12 H          -3.6808   12.8465   23.7912 H       1  UNL1        0.0000
     13 C          -4.6408   11.0666   24.7378 C.ar    1  UNL1        0.0000
     14 H          -3.9436   10.7587   25.5029 H       1  UNL1        0.0000
     15 C          -5.7836   10.3946   24.3641 C.ar    1  UNL1        0.0000
     16 C          -8.4891    8.8668   24.5537 C.3     1  UNL1        0.0000
     17 H          -9.0013    9.8280   24.5220 H       1  UNL1        0.0000
     18 H          -9.0867    8.1848   25.1504 H       1  UNL1        0.0000
     19 H          -8.4442    8.4786   23.5414 H       1  UNL1        0.0000
     20 C          -5.7204    7.4633   25.3460 C.3     1  UNL1        0.0000
     21 H          -4.8549    7.5660   25.9939 H       1  UNL1        0.0000
     22 H          -5.3671    7.2069   24.3524 H       1  UNL1        0.0000
     23 H          -6.3044    6.6277   25.7112 H       1  UNL1        0.0000
     24 C          -9.3717    9.7605   28.2918 C.3     1  UNL1        0.0000
     25 H          -9.5739   10.5103   27.5250 H       1  UNL1        0.0000
     26 H          -9.6868   10.1728   29.2451 H       1  UNL1        0.0000
     27 H          -9.9892    8.8910   28.0871 H       1  UNL1        0.0000
     28 C          -6.4332   10.0058   29.7100 C.3     1  UNL1        0.0000
     29 H          -7.0093   10.6813   30.3344 H       1  UNL1        0.0000
     30 H          -5.5963   10.5741   29.2942 H       1  UNL1        0.0000
     31 H          -6.0320    9.2276   30.3506 H       1  UNL1        0.0000
     32 C          -7.4196    7.4207   28.2657 C.ar    1  UNL1        0.0000
     33 C          -6.6451    6.4707   28.8689 C.ar    1  UNL1        0.0000
     34 H          -5.8689    6.6475   29.5844 H       1  UNL1        0.0000
     35 C          -7.0657    5.2158   28.3716 C.ar    1  UNL1        0.0000
     36 H          -6.6751    4.2529   28.6309 H       1  UNL1        0.0000
     37 C          -8.0753    5.4763   27.4916 C.ar    1  UNL1        0.0000
     38 C          -8.9100    4.5781   26.6495 C.3     1  UNL1        0.0000
     39 H          -8.6077    3.5465   26.8008 H       1  UNL1        0.0000
     40 H          -8.7985    4.8333   25.5960 H       1  UNL1        0.0000
     41 H          -9.9626    4.6827   26.9097 H       1  UNL1        0.0000
@<TRIPOS>BOND
     1     9     6    1
     2     7     6    1
     3     6     8    1
     4     6    10    1
     5    10     3   ar
     6    10    11   ar
     7     3    15   ar
     8    19    16    1
     9    12    11    1
    10    11    13   ar
    11    22    20    1
    12    15    13   ar
    13    15     1    1
    14    17    16    1
    15    16    18    1
    16    16     1    1
    17    13    14    1
    18     1    20    1
    19     1     5    1
    20    20    23    1
    21    20    21    1
    22    40    38    1
    23    38    39    1
    24    38    41    1
    25    38    37    1
    26     5     2    1
    27     4    37   ar
    28     4    32   ar
    29    37    35   ar
    30    25    24    1
    31    27    24    1
    32    32     2    1
    33    32    33   ar
    34    24     2    1
    35    24    26    1
    36     2    28    1
    37    35    36    1
    38    35    33   ar
    39    33    34    1
    40    30    28    1
    41    28    29    1
    42    28    31    1
