@<TRIPOS>MOLECULE
24
 24 23 0 0 0
SMALL
GASTEIGER

@<TRIPOS>ATOM
      1 SI          9.6707   10.4695   21.7453 Si      1  UNL1        0.0000
      2 H           9.8348   11.4692   20.6334 H       1  UNL1        0.0000
      3 C          11.4226    9.7128   21.9822 C.3     1  UNL1        0.0000
      4 H          11.5524    9.2601   22.9603 H       1  UNL1        0.0000
      5 H          12.1795   10.4850   21.8873 H       1  UNL1        0.0000
      6 H          11.6412    8.9537   21.2370 H       1  UNL1        0.0000
      7 C           9.3679   11.5082   23.3367 C.3     1  UNL1        0.0000
      8 H           8.3094   11.6831   23.5085 H       1  UNL1        0.0000
      9 H           9.8497   12.4777   23.2588 H       1  UNL1        0.0000
     10 H           9.7692   11.0264   24.2230 H       1  UNL1        0.0000
     11 C           7.8967    8.3251   22.0419 C.3     1  UNL1        0.0000
     12 C           8.6454    8.1039   23.3648 C.3     1  UNL1        0.0000
     13 H           9.6913    7.8870   23.1741 H       1  UNL1        0.0000
     14 H           8.2104    7.2624   23.9005 H       1  UNL1        0.0000
     15 H           8.5751    8.9853   23.9931 H       1  UNL1        0.0000
     16 C           8.0102    7.0225   21.2205 C.3     1  UNL1        0.0000
     17 H           7.4131    7.1089   20.3085 H       1  UNL1        0.0000
     18 H           7.6470    6.1768   21.8025 H       1  UNL1        0.0000
     19 H           9.0535    6.8422   20.9617 H       1  UNL1        0.0000
     20 C           6.4131    8.5857   22.3778 C.3     1  UNL1        0.0000
     21 H           6.3324    9.5061   22.9560 H       1  UNL1        0.0000
     22 H           6.0062    7.7667   22.9688 H       1  UNL1        0.0000
     23 H           5.8358    8.6801   21.4527 H       1  UNL1        0.0000
     24 N           8.4058    9.4405   21.2503 N.3     1  UNL1        0.0000
@<TRIPOS>BOND
     1    17    16    1
     2     2     1    1
     3    19    16    1
     4    16    18    1
     5    16    11    1
     6     6     3    1
     7    24     1    1
     8    24    11    1
     9    23    20    1
    10     1     3    1
    11     1     7    1
    12     5     3    1
    13     3     4    1
    14    11    20    1
    15    11    12    1
    16    20    21    1
    17    20    22    1
    18    13    12    1
    19     9     7    1
    20     7     8    1
    21     7    10    1
    22    12    14    1
    23    12    15    1
