@<TRIPOS>MOLECULE
3
 27 26 0 0 0
SMALL
GASTEIGER

@<TRIPOS>ATOM
      1 SI          5.0136    1.7429   23.3610 Si      1  UNL1        0.0000
      2 SI          3.1014    3.1559   21.5603 Si      1  UNL1        0.0000
      3 N           4.3972    2.0258   21.7692 N.3     1  UNL1        0.0000
      4 C           5.4228    3.3263   24.3484 C.3     1  UNL1        0.0000
      5 H           5.9879    4.0333   23.7516 H       1  UNL1        0.0000
      6 H           6.0057    3.0982   25.2349 H       1  UNL1        0.0000
      7 H           4.5143    3.8207   24.6726 H       1  UNL1        0.0000
      8 C           3.9029    0.6592   24.4845 C.3     1  UNL1        0.0000
      9 H           2.9638    1.1530   24.7052 H       1  UNL1        0.0000
     10 H           4.3945    0.4540   25.4304 H       1  UNL1        0.0000
     11 H           3.6729   -0.2981   24.0272 H       1  UNL1        0.0000
     12 C           6.6543    0.7684   23.1498 C.3     1  UNL1        0.0000
     13 H           6.4652   -0.2936   23.0190 H       1  UNL1        0.0000
     14 H           7.2679    0.8692   24.0394 H       1  UNL1        0.0000
     15 H           7.2474    1.1373   22.3120 H       1  UNL1        0.0000
     16 C           2.4632    3.0585   19.7464 C.3     1  UNL1        0.0000
     17 H           2.6950    3.9661   19.1987 H       1  UNL1        0.0000
     18 H           1.3841    2.9453   19.7302 H       1  UNL1        0.0000
     19 H           2.8869    2.2156   19.1933 H       1  UNL1        0.0000
     20 C           3.6045    4.9816   21.8551 C.3     1  UNL1        0.0000
     21 H           3.6012    5.2190   22.9123 H       1  UNL1        0.0000
     22 H           2.9149    5.6629   21.3663 H       1  UNL1        0.0000
     23 H           4.6002    5.1888   21.4786 H       1  UNL1        0.0000
     24 C           1.5903    2.8262   22.6861 C.3     1  UNL1        0.0000
     25 H           1.2654    1.7926   22.6313 H       1  UNL1        0.0000
     26 H           0.7489    3.4541   22.4105 H       1  UNL1        0.0000
     27 H           1.8320    3.0405   23.7211 H       1  UNL1        0.0000
@<TRIPOS>BOND
     1    19    16    1
     2    17    16    1
     3    18    16    1
     4    16     2    1
     5    22    20    1
     6    23    20    1
     7     2     3    1
     8     2    20    1
     9     2    24    1
    10     3     1    1
    11    20    21    1
    12    15    12    1
    13    26    24    1
    14    25    24    1
    15    24    27    1
    16    13    12    1
    17    12     1    1
    18    12    14    1
    19     1     4    1
    20     1     8    1
    21     5     4    1
    22    11     8    1
    23     4     7    1
    24     4     6    1
    25     8     9    1
    26     8    10    1
