@<TRIPOS>MOLECULE
2
 43 43 0 0 0
SMALL
GASTEIGER

@<TRIPOS>ATOM
      1 SI          8.1052   -0.6774    2.3973 Si      1  UNL1        0.0000
      2 N           7.4934   -1.6370    3.7160 N.pl3   1  UNL1        0.0000
      3 C           7.6181    1.1494    2.6487 C.3     1  UNL1        0.0000
      4 C           7.3482   -1.2840    0.7481 C.3     1  UNL1        0.0000
      5 C          10.0074   -0.8402    2.2318 C.3     1  UNL1        0.0000
      6 C           6.9365   -0.9819    4.8288 C.ar    1  UNL1        0.0000
      7 C           7.7775   -0.5137    5.8610 C.ar    1  UNL1        0.0000
      8 C           7.2238    0.1871    6.9201 C.ar    1  UNL1        0.0000
      9 C           5.8637    0.4198    6.9965 C.ar    1  UNL1        0.0000
     10 C           5.0368   -0.0548    5.9976 C.ar    1  UNL1        0.0000
     11 C           5.5507   -0.7403    4.9080 C.ar    1  UNL1        0.0000
     12 C           9.2704   -0.7415    5.8229 C.3     1  UNL1        0.0000
     13 C           9.7683   -1.4554    7.0820 C.3     1  UNL1        0.0000
     14 C          10.0111    0.5872    5.6528 C.3     1  UNL1        0.0000
     15 C           4.6143   -1.2398    3.8335 C.3     1  UNL1        0.0000
     16 C           3.7242   -2.3531    4.3932 C.3     1  UNL1        0.0000
     17 C           3.7724   -0.1094    3.2426 C.3     1  UNL1        0.0000
     18 H           8.3606    1.8072    2.2095 H       1  UNL1        0.0000
     19 H           6.6677    1.3713    2.1748 H       1  UNL1        0.0000
     20 H           7.5241    1.4016    3.6997 H       1  UNL1        0.0000
     21 H           7.8539   -0.8245   -0.0950 H       1  UNL1        0.0000
     22 H           6.2926   -1.0420    0.6650 H       1  UNL1        0.0000
     23 H           7.4544   -2.3610    0.6481 H       1  UNL1        0.0000
     24 H          10.5410   -0.1705    2.8978 H       1  UNL1        0.0000
     25 H          10.3182   -0.6070    1.2182 H       1  UNL1        0.0000
     26 H          10.3399   -1.8516    2.4495 H       1  UNL1        0.0000
     27 H           7.8666    0.5625    7.7025 H       1  UNL1        0.0000
     28 H           5.4517    0.9696    7.8304 H       1  UNL1        0.0000
     29 H           3.9732    0.1228    6.0614 H       1  UNL1        0.0000
     30 H           9.4944   -1.3803    4.9632 H       1  UNL1        0.0000
     31 H          10.8304   -1.6739    6.9876 H       1  UNL1        0.0000
     32 H           9.6285   -0.8383    7.9668 H       1  UNL1        0.0000
     33 H           9.2392   -2.3930    7.2294 H       1  UNL1        0.0000
     34 H          11.0810    0.4105    5.5590 H       1  UNL1        0.0000
     35 H           9.6651    1.1108    4.7656 H       1  UNL1        0.0000
     36 H           9.8467    1.2304    6.5149 H       1  UNL1        0.0000
     37 H           5.2223   -1.6608    3.0254 H       1  UNL1        0.0000
     38 H           3.0957   -1.9800    5.1993 H       1  UNL1        0.0000
     39 H           3.0828   -2.7612    3.6140 H       1  UNL1        0.0000
     40 H           4.3407   -3.1624    4.7870 H       1  UNL1        0.0000
     41 H           4.4133    0.6985    2.8967 H       1  UNL1        0.0000
     42 H           3.1923   -0.4773    2.3986 H       1  UNL1        0.0000
     43 H           3.0807    0.2941    3.9784 H       1  UNL1        0.0000
@<TRIPOS>BOND
     1    21     4    1
     2    23     4    1
     3    22     4    1
     4     4     1    1
     5    25     5    1
     6    19     3    1
     7    18     3    1
     8     5     1    1
     9     5    26    1
    10     5    24    1
    11     1     3    1
    12     1     2    1
    13    42    17    1
    14     3    20    1
    15    41    17    1
    16    37    15    1
    17    17    15    1
    18    17    43    1
    19    39    16    1
    20     2     6    1
    21    15    16    1
    22    15    11    1
    23    16    40    1
    24    16    38    1
    25    35    14    1
    26     6    11   ar
    27     6     7   ar
    28    11    10   ar
    29    30    12    1
    30    34    14    1
    31    14    12    1
    32    14    36    1
    33    12     7    1
    34    12    13    1
    35     7     8   ar
    36    10    29    1
    37    10     9   ar
    38     8     9   ar
    39     8    27    1
    40    31    13    1
    41     9    28    1
    42    13    33    1
    43    13    32    1
