@<TRIPOS>MOLECULE
3
 27 26 0 0 0
SMALL
GASTEIGER

@<TRIPOS>ATOM
      1 SI          3.6695   -6.1655   27.4830 Si      1  UNL1        0.0000
      2 SI          4.6517   -6.2610   30.2937 Si      1  UNL1        0.0000
      3 N           3.8414   -5.4221   29.0242 N.3     1  UNL1        0.0000
      4 C           2.7831   -7.8636   27.4436 C.3     1  UNL1        0.0000
      5 H           1.8079   -7.8266   27.9174 H       1  UNL1        0.0000
      6 H           3.3686   -8.6154   27.9599 H       1  UNL1        0.0000
      7 H           2.6394   -8.2057   26.4229 H       1  UNL1        0.0000
      8 C           2.5819   -4.9810   26.4302 C.3     1  UNL1        0.0000
      9 H           3.1840   -4.3898   25.7489 H       1  UNL1        0.0000
     10 H           1.9980   -4.2964   27.0566 H       1  UNL1        0.0000
     11 H           1.8749   -5.5400   25.8263 H       1  UNL1        0.0000
     12 C           5.3219   -6.4421   26.5492 C.3     1  UNL1        0.0000
     13 H           6.0877   -5.7560   26.8909 H       1  UNL1        0.0000
     14 H           5.2101   -6.3150   25.4769 H       1  UNL1        0.0000
     15 H           5.6899   -7.4478   26.7208 H       1  UNL1        0.0000
     16 C           6.4820   -6.6826   29.9272 C.3     1  UNL1        0.0000
     17 H           6.9951   -7.0283   30.8189 H       1  UNL1        0.0000
     18 H           7.0133   -5.8152   29.5520 H       1  UNL1        0.0000
     19 H           6.5551   -7.4642   29.1797 H       1  UNL1        0.0000
     20 C           3.8360   -7.9150   30.8214 C.3     1  UNL1        0.0000
     21 H           4.1600   -8.7249   30.1767 H       1  UNL1        0.0000
     22 H           2.7543   -7.8653   30.7651 H       1  UNL1        0.0000
     23 H           4.1029   -8.1865   31.8382 H       1  UNL1        0.0000
     24 C           4.6426   -5.0941   31.8156 C.3     1  UNL1        0.0000
     25 H           5.4751   -4.3987   31.7656 H       1  UNL1        0.0000
     26 H           3.7047   -4.5350   31.8948 H       1  UNL1        0.0000
     27 H           4.7555   -5.6600   32.7358 H       1  UNL1        0.0000
@<TRIPOS>BOND
     1    14    12    1
     2     9     8    1
     3    11     8    1
     4     7     4    1
     5     8    10    1
     6     8     1    1
     7    12    15    1
     8    12    13    1
     9    12     1    1
    10     4     1    1
    11     4     5    1
    12     4     6    1
    13     1     3    1
    14     3     2    1
    15    19    16    1
    16    18    16    1
    17    16     2    1
    18    16    17    1
    19    21    20    1
    20     2    20    1
    21     2    24    1
    22    22    20    1
    23    20    23    1
    24    25    24    1
    25    24    26    1
    26    24    27    1
