@<TRIPOS>MOLECULE
3
 27 26 0 0 0
SMALL
GASTEIGER

@<TRIPOS>ATOM
      1 SI          0.3683   -4.8375   31.5160 Si      1  UNL1        0.0000
      2 SI          1.4623   -2.3123   32.7920 Si      1  UNL1        0.0000
      3 N           1.3425   -3.4134   31.4748 N.3     1  UNL1        0.0000
      4 C           0.4289   -5.5382   29.7282 C.3     1  UNL1        0.0000
      5 H          -0.2587   -6.3727   29.6222 H       1  UNL1        0.0000
      6 H           1.4240   -5.9120   29.4857 H       1  UNL1        0.0000
      7 H           0.1289   -4.7896   28.9898 H       1  UNL1        0.0000
      8 C           0.9678   -6.1691   32.7535 C.3     1  UNL1        0.0000
      9 H           0.4398   -7.1072   32.6160 H       1  UNL1        0.0000
     10 H           0.7916   -5.8423   33.7731 H       1  UNL1        0.0000
     11 H           2.0282   -6.3662   32.6478 H       1  UNL1        0.0000
     12 C          -1.4918   -4.5860   31.9044 C.3     1  UNL1        0.0000
     13 H          -1.6403   -4.2915   32.9359 H       1  UNL1        0.0000
     14 H          -2.0452   -5.5062   31.7457 H       1  UNL1        0.0000
     15 H          -1.9395   -3.8230   31.2781 H       1  UNL1        0.0000
     16 C          -0.1819   -1.8855   33.6700 C.3     1  UNL1        0.0000
     17 H          -0.5107   -2.7074   34.2960 H       1  UNL1        0.0000
     18 H          -0.9727   -1.6753   32.9588 H       1  UNL1        0.0000
     19 H          -0.0696   -1.0142   34.3077 H       1  UNL1        0.0000
     20 C           2.6319   -2.8838   34.2037 C.3     1  UNL1        0.0000
     21 H           3.6519   -3.0461   33.8719 H       1  UNL1        0.0000
     22 H           2.2773   -3.8180   34.6260 H       1  UNL1        0.0000
     23 H           2.6600   -2.1524   35.0056 H       1  UNL1        0.0000
     24 C           2.1142   -0.6448   32.0876 C.3     1  UNL1        0.0000
     25 H           2.6617   -0.7682   31.1516 H       1  UNL1        0.0000
     26 H           2.7703   -0.1505   32.7970 H       1  UNL1        0.0000
     27 H           1.2885    0.0314   31.8914 H       1  UNL1        0.0000
@<TRIPOS>BOND
     1     7     4    1
     2     6     4    1
     3     5     4    1
     4     4     1    1
     5    25    24    1
     6    15    12    1
     7     3     1    1
     8     3     2    1
     9     1    12    1
    10     1     8    1
    11    14    12    1
    12    27    24    1
    13    12    13    1
    14    24     2    1
    15    24    26    1
    16     9     8    1
    17    11     8    1
    18     8    10    1
    19     2    16    1
    20     2    20    1
    21    18    16    1
    22    16    17    1
    23    16    19    1
    24    21    20    1
    25    20    22    1
    26    20    23    1
