@<TRIPOS>MOLECULE
27
 27 26 0 0 0
SMALL
GASTEIGER

@<TRIPOS>ATOM
      1 SI          5.3088   -2.1276   14.2010 Si      1  UNL1        0.0000
      2 C           5.0011   -3.1441   15.7905 C.3     1  UNL1        0.0000
      3 H           4.4184   -2.5857   16.5136 H       1  UNL1        0.0000
      4 H           5.9315   -3.4283   16.2665 H       1  UNL1        0.0000
      5 H           4.4578   -4.0563   15.5641 H       1  UNL1        0.0000
      6 SI          6.1490    0.1159   15.9784 Si      1  UNL1        0.0000
      7 C           6.4008   -3.2660   13.1129 C.3     1  UNL1        0.0000
      8 H           6.7256   -2.7574   12.2129 H       1  UNL1        0.0000
      9 H           5.8446   -4.1471   12.8090 H       1  UNL1        0.0000
     10 H           7.2797   -3.6092   13.6499 H       1  UNL1        0.0000
     11 C           3.5761   -2.0819   13.3698 C.3     1  UNL1        0.0000
     12 H           3.6239   -1.6405   12.3818 H       1  UNL1        0.0000
     13 H           2.8609   -1.5190   13.9627 H       1  UNL1        0.0000
     14 H           3.1816   -3.0876   13.2591 H       1  UNL1        0.0000
     15 C           7.0473   -0.9646   17.2837 C.3     1  UNL1        0.0000
     16 H           6.3525   -1.5972   17.8221 H       1  UNL1        0.0000
     17 H           7.5614   -0.3486   18.0152 H       1  UNL1        0.0000
     18 H           7.7852   -1.6092   16.8180 H       1  UNL1        0.0000
     19 C           7.2082    1.7095   15.9119 C.3     1  UNL1        0.0000
     20 H           7.0388    2.3068   16.8024 H       1  UNL1        0.0000
     21 H           6.9535    2.3306   15.0567 H       1  UNL1        0.0000
     22 H           8.2694    1.4796   15.8811 H       1  UNL1        0.0000
     23 C           4.4492    0.6119   16.7183 C.3     1  UNL1        0.0000
     24 H           4.5321    0.8886   17.7646 H       1  UNL1        0.0000
     25 H           3.7439   -0.2097   16.6482 H       1  UNL1        0.0000
     26 H           4.0246    1.4578   16.1873 H       1  UNL1        0.0000
     27 N           6.0344   -0.5714   14.4020 N.3     1  UNL1        0.0000
@<TRIPOS>BOND
     1     8     7    1
     2    12    11    1
     3     9     7    1
     4     7    10    1
     5     7     1    1
     6    14    11    1
     7    11    13    1
     8    11     1    1
     9     1    27    1
    10     1     2    1
    11    27     6    1
    12    21    19    1
    13     5     2    1
    14     2     4    1
    15     2     3    1
    16    22    19    1
    17    19     6    1
    18    19    20    1
    19     6    23    1
    20     6    15    1
    21    26    23    1
    22    25    23    1
    23    23    24    1
    24    18    15    1
    25    15    16    1
    26    15    17    1
