@<TRIPOS>MOLECULE
1
 11 11 0 0 0
SMALL
GASTEIGER

@<TRIPOS>ATOM
      1 N          15.3952    4.6601    1.5227 N.pl3   1  UNL1       -0.2487
      2 C          14.9407    5.4993    0.5947 C.3     1  UNL1        0.0840
      3 C          15.7073    6.5129    0.0399 C.2     1  UNL1       -0.0600
      4 C          17.0159    6.6705    0.4654 C.2     1  UNL1       -0.0626
      5 C          17.4953    5.8052    1.4359 C.2     1  UNL1       -0.0466
      6 C          16.6522    4.8230    1.9320 C.2     1  UNL1        0.0121
      7 H          13.9127    5.3662    0.2827 H       1  UNL1        0.0584
      8 H          15.2821    7.1632   -0.7083 H       1  UNL1        0.0592
      9 H          17.6438    7.4478    0.0556 H       1  UNL1        0.0615
     10 H          18.5053    5.8888    1.8058 H       1  UNL1        0.0630
     11 H          16.9953    4.1400    2.6980 H       1  UNL1        0.0797
@<TRIPOS>BOND
     1     8     3    1
     2     3     4    2
     3     3     2    1
     4     9     4    1
     5     7     2    1
     6     4     5    1
     7     2     1    1
     8     5    10    1
     9     5     6    2
    10     1     6    1
    11     6    11    1
