@<TRIPOS>MOLECULE
1
 11 11 0 0 0
SMALL
GASTEIGER

@<TRIPOS>ATOM
      1 N           3.8350    3.6391    1.6564 N.pl3   1  UNL1       -0.2487
      2 C           3.7010    4.8516    1.1372 C.3     1  UNL1        0.0840
      3 H           4.0328    4.9558    0.1138 H       1  UNL1        0.0584
      4 C           3.1761    5.9196    1.8464 C.2     1  UNL1       -0.0600
      5 H           3.0803    6.8876    1.3799 H       1  UNL1        0.0592
      6 C           2.7804    5.7152    3.1591 C.2     1  UNL1       -0.0626
      7 H           2.3641    6.5229    3.7426 H       1  UNL1        0.0615
      8 C           2.9332    4.4499    3.7041 C.2     1  UNL1       -0.0466
      9 H           2.6436    4.2431    4.7218 H       1  UNL1        0.0630
     10 C           3.4634    3.4417    2.9151 C.2     1  UNL1        0.0121
     11 H           3.5901    2.4355    3.2871 H       1  UNL1        0.0797
@<TRIPOS>BOND
     1     3     2    1
     2     2     1    1
     3     2     4    1
     4     5     4    1
     5     1    10    1
     6     4     6    2
     7    10    11    1
     8    10     8    2
     9     6     8    1
    10     6     7    1
    11     8     9    1
