@<TRIPOS>MOLECULE
1
 27 26 0 0 0
SMALL
GASTEIGER

@<TRIPOS>ATOM
      1 N          12.1956    6.3544    9.8965 N.3     1  UNL1        0.0000
      2 SI         13.8228    6.5784    9.3838 Si      1  UNL1        0.0000
      3 SI         10.9097    7.3529    9.3376 Si      1  UNL1        0.0000
      4 C          14.7934    5.0005    9.8967 C.3     1  UNL1        0.0000
      5 H          15.2624    5.1136   10.8692 H       1  UNL1        0.0000
      6 H          15.5790    4.7712    9.1833 H       1  UNL1        0.0000
      7 H          14.1295    4.1322    9.9386 H       1  UNL1        0.0000
      8 C          14.1004    6.8207    7.5037 C.3     1  UNL1        0.0000
      9 H          13.6721    6.0190    6.9135 H       1  UNL1        0.0000
     10 H          15.1599    6.8744    7.2714 H       1  UNL1        0.0000
     11 H          13.6486    7.7508    7.1758 H       1  UNL1        0.0000
     12 C          14.6567    8.1121   10.1866 C.3     1  UNL1        0.0000
     13 H          14.7679    8.9077    9.4581 H       1  UNL1        0.0000
     14 H          15.6447    7.8864   10.5744 H       1  UNL1        0.0000
     15 H          14.0596    8.4997   11.0036 H       1  UNL1        0.0000
     16 C          11.2236    9.2167    9.6397 C.3     1  UNL1        0.0000
     17 H          11.4827    9.4137   10.6750 H       1  UNL1        0.0000
     18 H          10.3529    9.8151    9.3930 H       1  UNL1        0.0000
     19 H          12.0482    9.5618    9.0270 H       1  UNL1        0.0000
     20 C           9.3312    6.8544   10.3108 C.3     1  UNL1        0.0000
     21 H           9.2126    5.7680   10.3197 H       1  UNL1        0.0000
     22 H           8.4391    7.2709    9.8524 H       1  UNL1        0.0000
     23 H           9.3593    7.2054   11.3393 H       1  UNL1        0.0000
     24 C          10.4642    7.1366    7.4847 C.3     1  UNL1        0.0000
     25 H          11.2776    7.4615    6.8463 H       1  UNL1        0.0000
     26 H           9.5852    7.7156    7.2179 H       1  UNL1        0.0000
     27 H          10.2598    6.0965    7.2523 H       1  UNL1        0.0000
@<TRIPOS>BOND
     1    25    24    1
     2     9     8    1
     3    11     8    1
     4    26    24    1
     5    27    24    1
     6    10     8    1
     7    24     3    1
     8     8     2    1
     9    19    16    1
    10     6     4    1
    11     3    16    1
    12     3     1    1
    13     3    20    1
    14     2     1    1
    15     2     4    1
    16     2    12    1
    17    18    16    1
    18    13    12    1
    19    16    17    1
    20    22    20    1
    21     4     7    1
    22     4     5    1
    23    12    14    1
    24    12    15    1
    25    20    21    1
    26    20    23    1
