@<TRIPOS>MOLECULE
3
 27 26 0 0 0
SMALL
GASTEIGER

@<TRIPOS>ATOM
      1 SI         -2.5507    2.2340    4.6806 Si      1  UNL1        0.0000
      2 SI         -2.6732    5.2367    4.8357 Si      1  UNL1        0.0000
      3 N          -1.7739    3.7663    4.8372 N.3     1  UNL1        0.0000
      4 C          -1.1714    0.9120    4.9445 C.3     1  UNL1        0.0000
      5 C          -3.9245    1.8723    5.9626 C.3     1  UNL1        0.0000
      6 C          -3.3778    1.9242    2.9785 C.3     1  UNL1        0.0000
      7 C          -3.7228    5.5229    6.4163 C.3     1  UNL1        0.0000
      8 C          -3.8875    5.4772    3.3808 C.3     1  UNL1        0.0000
      9 C          -1.3630    6.6466    4.7347 C.3     1  UNL1        0.0000
     10 H          -1.1403    0.2030    4.1241 H       1  UNL1        0.0000
     11 H          -1.3499    0.3424    5.8511 H       1  UNL1        0.0000
     12 H          -0.1742    1.3750    5.0268 H       1  UNL1        0.0000
     13 H          -4.2809    0.8509    5.8737 H       1  UNL1        0.0000
     14 H          -3.5908    2.0175    6.9842 H       1  UNL1        0.0000
     15 H          -4.7725    2.5282    5.7994 H       1  UNL1        0.0000
     16 H          -2.8692    2.4402    2.1713 H       1  UNL1        0.0000
     17 H          -4.4015    2.2818    2.9903 H       1  UNL1        0.0000
     18 H          -3.4064    0.8675    2.7311 H       1  UNL1        0.0000
     19 H          -4.6077    4.8970    6.3963 H       1  UNL1        0.0000
     20 H          -4.0553    6.5540    6.4862 H       1  UNL1        0.0000
     21 H          -3.1860    5.2888    7.3302 H       1  UNL1        0.0000
     22 H          -4.3447    6.4611    3.4110 H       1  UNL1        0.0000
     23 H          -4.6840    4.7436    3.4306 H       1  UNL1        0.0000
     24 H          -3.4025    5.3688    2.4170 H       1  UNL1        0.0000
     25 H          -1.5650    7.4305    5.4576 H       1  UNL1        0.0000
     26 H          -1.3669    7.1066    3.7520 H       1  UNL1        0.0000
     27 H          -0.3455    6.2684    4.9255 H       1  UNL1        0.0000
@<TRIPOS>BOND
     1    16     6    1
     2    24     8    1
     3    18     6    1
     4     6    17    1
     5     6     1    1
     6     8    22    1
     7     8    23    1
     8     8     2    1
     9    26     9    1
    10    10     4    1
    11     1     3    1
    12     1     4    1
    13     1     5    1
    14     9     2    1
    15     9    27    1
    16     9    25    1
    17     2     3    1
    18     2     7    1
    19     4    12    1
    20     4    11    1
    21    15     5    1
    22    13     5    1
    23     5    14    1
    24    19     7    1
    25     7    20    1
    26     7    21    1
