@<TRIPOS>MOLECULE
1
 27 26 0 0 0
SMALL
GASTEIGER

@<TRIPOS>ATOM
      1 N           7.1587    6.7334    9.6719 N.3     1  UNL1        0.0000
      2 SI          8.1555    7.1105   11.0374 Si      1  UNL1        0.0000
      3 SI          7.2915    7.6384    8.2004 Si      1  UNL1        0.0000
      4 C           7.3986    6.3380   12.6110 C.3     1  UNL1        0.0000
      5 H           6.5189    6.8746   12.9490 H       1  UNL1        0.0000
      6 H           8.1189    6.3546   13.4227 H       1  UNL1        0.0000
      7 H           7.1156    5.3057   12.4358 H       1  UNL1        0.0000
      8 C           8.3128    8.9915   11.3659 C.3     1  UNL1        0.0000
      9 H           8.8094    9.4988   10.5465 H       1  UNL1        0.0000
     10 H           8.8932    9.1734   12.2647 H       1  UNL1        0.0000
     11 H           7.3439    9.4607   11.5044 H       1  UNL1        0.0000
     12 C           9.9465    6.4306   10.9108 C.3     1  UNL1        0.0000
     13 H           9.9669    5.3507   11.0174 H       1  UNL1        0.0000
     14 H          10.5672    6.8491   11.6971 H       1  UNL1        0.0000
     15 H          10.4096    6.6763    9.9623 H       1  UNL1        0.0000
     16 C           6.4673    9.3727    8.2216 C.3     1  UNL1        0.0000
     17 H           5.3859    9.3025    8.1628 H       1  UNL1        0.0000
     18 H           6.8039    9.9610    7.3733 H       1  UNL1        0.0000
     19 H           6.7122    9.9261    9.1206 H       1  UNL1        0.0000
     20 C           9.1143    7.9334    7.6841 C.3     1  UNL1        0.0000
     21 H           9.6349    8.5470    8.4101 H       1  UNL1        0.0000
     22 H           9.1625    8.4444    6.7279 H       1  UNL1        0.0000
     23 H           9.6661    7.0042    7.5845 H       1  UNL1        0.0000
     24 C           6.4837    6.6984    6.7406 C.3     1  UNL1        0.0000
     25 H           6.8974    5.7035    6.6100 H       1  UNL1        0.0000
     26 H           6.6473    7.2397    5.8134 H       1  UNL1        0.0000
     27 H           5.4101    6.6061    6.8762 H       1  UNL1        0.0000
@<TRIPOS>BOND
     1    26    24    1
     2    25    24    1
     3    22    20    1
     4    24    27    1
     5    24     3    1
     6    18    16    1
     7    23    20    1
     8    20     3    1
     9    20    21    1
    10    17    16    1
    11     3    16    1
    12     3     1    1
    13    16    19    1
    14     1     2    1
    15    15    12    1
    16     9     8    1
    17    12    13    1
    18    12     2    1
    19    12    14    1
    20     2     8    1
    21     2     4    1
    22     8    11    1
    23     8    10    1
    24     7     4    1
    25     4     5    1
    26     4     6    1
