@<TRIPOS>MOLECULE
1
 11 11 0 0 0
SMALL
GASTEIGER

@<TRIPOS>ATOM
      1 N           7.2878    4.0248    9.8927 N.pl3   1  UNL1       -0.2487
      2 C           8.3986    4.0364    9.1293 C.3     1  UNL1        0.0840
      3 H           8.4421    4.8201    8.3851 H       1  UNL1        0.0584
      4 C           9.4390    3.1435    9.2666 C.2     1  UNL1       -0.0600
      5 H          10.2933    3.2123    8.6105 H       1  UNL1        0.0592
      6 C           9.3796    2.1679   10.2550 C.2     1  UNL1       -0.0626
      7 H          10.1806    1.4602   10.3962 H       1  UNL1        0.0615
      8 C           8.2442    2.1505   11.0595 C.2     1  UNL1       -0.0466
      9 H           8.1397    1.4209   11.8477 H       1  UNL1        0.0630
     10 C           7.2449    3.0740   10.8479 C.2     1  UNL1        0.0121
     11 H           6.3482    3.0665   11.4509 H       1  UNL1        0.0797
@<TRIPOS>BOND
     1     3     2    1
     2     5     4    1
     3     2     4    1
     4     2     1    1
     5     4     6    2
     6     1    10    1
     7     6     7    1
     8     6     8    1
     9    10     8    2
    10    10    11    1
    11     8     9    1
