@<TRIPOS>MOLECULE
1
 27 26 0 0 0
SMALL
GASTEIGER

@<TRIPOS>ATOM
      1 N           4.4843    3.8839    9.9494 N.3     1  UNL1        0.0000
      2 SI          3.3959    3.8578   11.2967 Si      1  UNL1        0.0000
      3 SI          4.4431    2.6336    8.7508 Si      1  UNL1        0.0000
      4 C           1.6234    4.4687   10.8833 C.3     1  UNL1        0.0000
      5 H           1.6060    5.5398   10.7091 H       1  UNL1        0.0000
      6 H           0.9487    4.2600   11.7079 H       1  UNL1        0.0000
      7 H           1.2211    3.9853   10.0007 H       1  UNL1        0.0000
      8 C           4.0537    5.0109   12.6692 C.3     1  UNL1        0.0000
      9 H           4.9063    4.5865   13.1878 H       1  UNL1        0.0000
     10 H           3.2821    5.1923   13.4107 H       1  UNL1        0.0000
     11 H           4.3537    5.9684   12.2575 H       1  UNL1        0.0000
     12 C           3.2005    2.1206   12.0807 C.3     1  UNL1        0.0000
     13 H           2.7564    1.4175   11.3851 H       1  UNL1        0.0000
     14 H           2.5589    2.1677   12.9546 H       1  UNL1        0.0000
     15 H           4.1537    1.7107   12.3991 H       1  UNL1        0.0000
     16 C           2.6566    2.2006    8.2056 C.3     1  UNL1        0.0000
     17 H           2.0830    1.7884    9.0277 H       1  UNL1        0.0000
     18 H           2.6683    1.4616    7.4109 H       1  UNL1        0.0000
     19 H           2.1208    3.0685    7.8349 H       1  UNL1        0.0000
     20 C           5.3549    3.1791    7.1576 C.3     1  UNL1        0.0000
     21 H           4.9594    4.1044    6.7510 H       1  UNL1        0.0000
     22 H           5.2494    2.4185    6.3895 H       1  UNL1        0.0000
     23 H           6.4177    3.3124    7.3371 H       1  UNL1        0.0000
     24 C           5.2496    0.9690    9.2666 C.3     1  UNL1        0.0000
     25 H           6.3331    1.0315    9.2636 H       1  UNL1        0.0000
     26 H           4.9651    0.1815    8.5754 H       1  UNL1        0.0000
     27 H           4.9412    0.6602   10.2585 H       1  UNL1        0.0000
@<TRIPOS>BOND
     1    22    20    1
     2    21    20    1
     3    20    23    1
     4    20     3    1
     5    18    16    1
     6    19    16    1
     7    16     3    1
     8    16    17    1
     9    26    24    1
    10     3    24    1
    11     3     1    1
    12    25    24    1
    13    24    27    1
    14     1     2    1
    15     7     4    1
    16     5     4    1
    17     4     2    1
    18     4     6    1
    19     2    12    1
    20     2     8    1
    21    13    12    1
    22    12    15    1
    23    12    14    1
    24    11     8    1
    25     8     9    1
    26     8    10    1
