@<TRIPOS>MOLECULE
1
 11 11 0 0 0
SMALL
GASTEIGER

@<TRIPOS>ATOM
      1 N           4.3637    6.5580    9.4637 N.pl3   1  UNL1       -0.2487
      2 C           3.3060    6.3414    8.6566 C.3     1  UNL1        0.0840
      3 H           3.3062    5.3936    8.1355 H       1  UNL1        0.0584
      4 C           2.2651    7.2294    8.4929 C.2     1  UNL1       -0.0600
      5 H           1.4558    6.9871    7.8213 H       1  UNL1        0.0592
      6 C           2.2659    8.4251    9.2019 C.2     1  UNL1       -0.0626
      7 H           1.4624    9.1373    9.1049 H       1  UNL1        0.0615
      8 C           3.3455    8.6581   10.0485 C.2     1  UNL1       -0.0466
      9 H           3.4028    9.5655   10.6297 H       1  UNL1        0.0630
     10 C           4.3499    7.7211   10.1457 C.2     1  UNL1        0.0121
     11 H           5.2046    7.8906   10.7849 H       1  UNL1        0.0797
@<TRIPOS>BOND
     1     5     4    1
     2     3     2    1
     3     4     2    1
     4     4     6    2
     5     2     1    1
     6     7     6    1
     7     6     8    1
     8     1    10    1
     9     8    10    2
    10     8     9    1
    11    10    11    1
