@<TRIPOS>MOLECULE
1
 11 11 0 0 0
SMALL
GASTEIGER

@<TRIPOS>ATOM
      1 N           4.7960   13.2408   17.3361 N.pl3   1  UNL1       -0.2487
      2 C           5.5920   13.9279   16.5099 C.3     1  UNL1        0.0840
      3 H           6.2377   13.3435   15.8606 H       1  UNL1        0.0584
      4 C           5.6161   15.3107   16.4730 C.2     1  UNL1       -0.0600
      5 H           6.2699   15.8166   15.7813 H       1  UNL1        0.0592
      6 C           4.7956   16.0203   17.3366 C.2     1  UNL1       -0.0626
      7 H           4.7954   17.0994   17.3369 H       1  UNL1        0.0615
      8 C           3.9754   15.3101   18.2001 C.2     1  UNL1       -0.0466
      9 C           3.9998   13.9273   18.1625 C.2     1  UNL1        0.0121
     10 H           3.3545   13.3425   18.8118 H       1  UNL1        0.0797
     11 H           3.3213   15.8155   18.8920 H       1  UNL1        0.0630
@<TRIPOS>BOND
     1     5     4    1
     2     3     2    1
     3     4     2    1
     4     4     6    2
     5     2     1    1
     6     1     9    1
     7     6     7    1
     8     6     8    1
     9     9     8    2
    10     9    10    1
    11     8    11    1
