@<TRIPOS>MOLECULE
2
 42 41 0 0 0
SMALL
GASTEIGER

@<TRIPOS>ATOM
      1 SI          9.3976   11.5237   10.1233 Si      1  UNL1        0.0000
      2 N           7.9069   12.1169    9.4649 N.3     1  UNL1        0.0000
      3 H           7.1363   11.4557    9.5918 H       1  UNL1        0.0000
      4 C           9.4039   12.1669   11.9788 C.3     1  UNL1        0.0000
      5 C           9.6473   13.6797   12.0177 C.3     1  UNL1        0.0000
      6 H           9.4817   14.0584   13.0265 H       1  UNL1        0.0000
      7 H           8.9559   14.1973   11.3454 H       1  UNL1        0.0000
      8 H          10.6691   13.9258   11.7433 H       1  UNL1        0.0000
      9 C           8.0157   11.9410   12.5917 C.3     1  UNL1        0.0000
     10 H           7.9672   12.3939   13.5819 H       1  UNL1        0.0000
     11 H           7.7867   10.8870   12.7001 H       1  UNL1        0.0000
     12 H           7.2479   12.3990   11.9645 H       1  UNL1        0.0000
     13 C          10.4582   11.4911   12.8562 C.3     1  UNL1        0.0000
     14 H          10.4392   11.9153   13.8598 H       1  UNL1        0.0000
     15 H          11.4557   11.6321   12.4486 H       1  UNL1        0.0000
     16 H          10.2752   10.4242   12.9430 H       1  UNL1        0.0000
     17 C           9.3714    9.5777    9.9489 C.3     1  UNL1        0.0000
     18 C           8.4743    8.9403   11.0148 C.3     1  UNL1        0.0000
     19 H           8.4118    7.8648   10.8481 H       1  UNL1        0.0000
     20 H           7.4642    9.3411   10.9717 H       1  UNL1        0.0000
     21 H           8.8714    9.0930   12.0136 H       1  UNL1        0.0000
     22 C          10.7692    8.9738   10.0921 C.3     1  UNL1        0.0000
     23 H          10.7142    7.8863   10.0480 H       1  UNL1        0.0000
     24 H          11.2196    9.2507   11.0413 H       1  UNL1        0.0000
     25 H          11.4256    9.3044    9.2925 H       1  UNL1        0.0000
     26 C           8.7911    9.1599    8.5910 C.3     1  UNL1        0.0000
     27 H           8.7067    8.0741    8.5469 H       1  UNL1        0.0000
     28 H           9.4180    9.4757    7.7655 H       1  UNL1        0.0000
     29 H           7.7980    9.5780    8.4398 H       1  UNL1        0.0000
     30 C          10.7324   12.4100    8.9956 C.3     1  UNL1        0.0000
     31 C          12.1491   12.3643    9.5711 C.3     1  UNL1        0.0000
     32 H          12.8449   12.8627    8.8964 H       1  UNL1        0.0000
     33 H          12.4828   11.3391    9.7027 H       1  UNL1        0.0000
     34 H          12.2027   12.8636   10.5347 H       1  UNL1        0.0000
     35 C          10.7550   11.7743    7.6021 C.3     1  UNL1        0.0000
     36 H          11.4214   12.3345    6.9455 H       1  UNL1        0.0000
     37 H           9.7603   11.7846    7.1557 H       1  UNL1        0.0000
     38 H          11.1182   10.7518    7.6380 H       1  UNL1        0.0000
     39 C          10.3287   13.8753    8.7951 C.3     1  UNL1        0.0000
     40 H          10.8495   14.3001    7.9351 H       1  UNL1        0.0000
     41 H          10.5662   14.4888    9.6600 H       1  UNL1        0.0000
     42 H           9.2317   13.9455    8.5958 H       1  UNL1        0.0000
@<TRIPOS>BOND
     1    36    35    1
     2    37    35    1
     3    35    38    1
     4    35    30    1
     5    28    26    1
     6    40    39    1
     7    29    26    1
     8    27    26    1
     9    26    17    1
    10    42    39    1
    11    39    30    1
    12    39    41    1
    13    32    31    1
    14    30    31    1
    15    30     1    1
    16    25    22    1
    17     2     3    1
    18     2     1    1
    19    31    33    1
    20    31    34    1
    21    17    22    1
    22    17     1    1
    23    17    18    1
    24    23    22    1
    25    22    24    1
    26     1     4    1
    27    19    18    1
    28    20    18    1
    29    18    21    1
    30     7     5    1
    31     8     5    1
    32    12     9    1
    33     4     5    1
    34     4     9    1
    35     4    13    1
    36     5     6    1
    37    15    13    1
    38     9    11    1
    39     9    10    1
    40    13    16    1
    41    13    14    1
