@<TRIPOS>MOLECULE
1
 9 8 0 0 0
SMALL
GASTEIGER

@<TRIPOS>ATOM
      1 N          13.1849    4.5429    4.8211 N.3     1  UNL1       -0.2469
      2 C          13.5413    5.1627    6.0722 C.3     1  UNL1        0.0021
      3 H          14.4704    4.7268    6.4841 H       1  UNL1        0.0405
      4 H          12.7441    5.0320    6.8088 H       1  UNL1        0.0405
      5 H          13.7277    6.2444    5.9443 H       1  UNL1        0.0405
      6 C          14.2832    4.6472    3.8894 C.3     1  UNL1        0.0021
      7 H          14.5112    5.7025    3.6602 H       1  UNL1        0.0405
      8 H          14.0441    4.1351    2.9558 H       1  UNL1        0.0405
      9 H          15.2049    4.2052    4.3100 H       1  UNL1        0.0405
@<TRIPOS>BOND
     1     8     6    1
     2     7     6    1
     3     6     9    1
     4     6     1    1
     5     1     2    1
     6     5     2    1
     7     2     3    1
     8     2     4    1
