@<TRIPOS>MOLECULE
1
 9 8 0 0 0
SMALL
GASTEIGER

@<TRIPOS>ATOM
      1 N          10.3266    4.9428    4.5370 N.3     1  UNL1       -0.2469
      2 C          10.1995    6.1031    5.3798 C.3     1  UNL1        0.0021
      3 H          10.1066    7.0249    4.7791 H       1  UNL1        0.0405
      4 H          11.0700    6.2057    6.0299 H       1  UNL1        0.0405
      5 H           9.2943    6.0377    6.0110 H       1  UNL1        0.0405
      6 C           9.1696    4.8146    3.6838 C.3     1  UNL1        0.0021
      7 H           8.2501    4.6441    4.2726 H       1  UNL1        0.0405
      8 H           9.3057    3.9893    2.9802 H       1  UNL1        0.0405
      9 H           9.0109    5.7365    3.0989 H       1  UNL1        0.0405
@<TRIPOS>BOND
     1     8     6    1
     2     9     6    1
     3     6     7    1
     4     6     1    1
     5     1     2    1
     6     3     2    1
     7     2     5    1
     8     2     4    1
