@<TRIPOS>MOLECULE
2
 36 36 0 0 0
SMALL
GASTEIGER

@<TRIPOS>ATOM
      1 SI          9.3337    4.9430    5.8518 Si      1  UNL1        0.0000
      2 N          10.9028    4.5378    5.2051 N.pl3   1  UNL1        0.0000
      3 N           8.0044    3.9939    5.2820 N.3     1  UNL1        0.0000
      4 C          11.4183    3.2610    5.3177 C.ar    1  UNL1        0.0000
      5 C          12.4891    3.0384    6.1924 C.ar    1  UNL1        0.0000
      6 H          12.8481    3.8776    6.7780 H       1  UNL1        0.0000
      7 C          13.0606    1.7870    6.3044 C.ar    1  UNL1        0.0000
      8 H          13.8870    1.6304    6.9836 H       1  UNL1        0.0000
      9 C          12.5714    0.7263    5.5564 C.ar    1  UNL1        0.0000
     10 H          13.0142   -0.2541    5.6488 H       1  UNL1        0.0000
     11 C          11.5067    0.9326    4.6936 C.ar    1  UNL1        0.0000
     12 H          11.1210    0.1081    4.1105 H       1  UNL1        0.0000
     13 C          10.9333    2.1835    4.5727 C.ar    1  UNL1        0.0000
     14 H          10.1068    2.3494    3.8986 H       1  UNL1        0.0000
     15 C           9.4348    4.7888    7.7512 C.3     1  UNL1        0.0000
     16 H           9.6079    3.7636    8.0605 H       1  UNL1        0.0000
     17 H           8.5359    5.1427    8.2439 H       1  UNL1        0.0000
     18 H          10.2664    5.3846    8.1151 H       1  UNL1        0.0000
     19 C           9.1397    6.7848    5.3896 C.3     1  UNL1        0.0000
     20 H           8.6016    6.9245    4.4602 H       1  UNL1        0.0000
     21 H          10.1210    7.2496    5.2838 H       1  UNL1        0.0000
     22 H           8.6031    7.3269    6.1593 H       1  UNL1        0.0000
     23 C           7.2812    3.0536    6.1078 C.3     1  UNL1        0.0000
     24 H           7.2620    3.4319    7.1295 H       1  UNL1        0.0000
     25 H           6.2471    2.9903    5.7551 H       1  UNL1        0.0000
     26 C           7.9002    1.6549    6.1093 C.3     1  UNL1        0.0000
     27 H           7.3359    0.9965    6.7652 H       1  UNL1        0.0000
     28 H           8.9296    1.7054    6.4548 H       1  UNL1        0.0000
     29 H           7.8984    1.2288    5.1091 H       1  UNL1        0.0000
     30 C           7.6373    3.9943    3.8842 C.3     1  UNL1        0.0000
     31 H           7.4738    2.9657    3.5410 H       1  UNL1        0.0000
     32 H           8.4689    4.4113    3.3135 H       1  UNL1        0.0000
     33 C           6.3797    4.8203    3.6063 C.3     1  UNL1        0.0000
     34 H           6.1680    4.8348    2.5398 H       1  UNL1        0.0000
     35 H           6.5217    5.8394    3.9544 H       1  UNL1        0.0000
     36 H           5.5198    4.4017    4.1228 H       1  UNL1        0.0000
@<TRIPOS>BOND
     1    34    33    1
     2    32    30    1
     3    31    30    1
     4    33    30    1
     5    33    35    1
     6    33    36    1
     7    30     3    1
     8    14    13    1
     9    12    11    1
    10    20    19    1
    11    13    11   ar
    12    13     4   ar
    13    11     9   ar
    14    29    26    1
    15     2     4    1
    16     2     1    1
    17     3     1    1
    18     3    23    1
    19    21    19    1
    20     4     5   ar
    21    19     1    1
    22    19    22    1
    23     9    10    1
    24     9     7   ar
    25    25    23    1
    26     1    15    1
    27    23    26    1
    28    23    24    1
    29    26    28    1
    30    26    27    1
    31     5     7   ar
    32     5     6    1
    33     7     8    1
    34    15    16    1
    35    15    18    1
    36    15    17    1
