@<TRIPOS>MOLECULE
3
 27 26 0 0 0
SMALL
GASTEIGER

@<TRIPOS>ATOM
      1 SI          1.1757   17.9416    8.7913 Si      1  UNL1        0.0000
      2 SI          2.7172   16.8688    6.4803 Si      1  UNL1        0.0000
      3 N           2.2579   16.7617    8.1395 N.3     1  UNL1        0.0000
      4 C           0.3224   17.2035   10.3400 C.3     1  UNL1        0.0000
      5 H          -0.7250   16.9925   10.1494 H       1  UNL1        0.0000
      6 H           0.3601   17.8918   11.1777 H       1  UNL1        0.0000
      7 H           0.7937   16.2740   10.6604 H       1  UNL1        0.0000
      8 C           2.0568   19.5622    9.3239 C.3     1  UNL1        0.0000
      9 H           2.7023   19.4203   10.1848 H       1  UNL1        0.0000
     10 H           1.3287   20.3235    9.5865 H       1  UNL1        0.0000
     11 H           2.6664   19.9558    8.5181 H       1  UNL1        0.0000
     12 C          -0.2190   18.4834    7.6036 C.3     1  UNL1        0.0000
     13 H           0.1878   19.0001    6.7423 H       1  UNL1        0.0000
     14 H          -0.9105   19.1586    8.0973 H       1  UNL1        0.0000
     15 H          -0.7903   17.6375    7.2371 H       1  UNL1        0.0000
     16 C           3.3960   18.5683    5.9268 C.3     1  UNL1        0.0000
     17 H           2.6354   19.3342    6.0311 H       1  UNL1        0.0000
     18 H           3.7003   18.5463    4.8850 H       1  UNL1        0.0000
     19 H           4.2558   18.8759    6.5129 H       1  UNL1        0.0000
     20 C           1.3000   16.4507    5.2491 C.3     1  UNL1        0.0000
     21 H           1.6442   15.8337    4.4242 H       1  UNL1        0.0000
     22 H           0.8931   17.3604    4.8216 H       1  UNL1        0.0000
     23 H           0.4811   15.9306    5.7342 H       1  UNL1        0.0000
     24 C           4.1247   15.5996    6.1993 C.3     1  UNL1        0.0000
     25 H           5.0945   16.0229    6.4441 H       1  UNL1        0.0000
     26 H           4.1687   15.2868    5.1601 H       1  UNL1        0.0000
     27 H           3.9897   14.7025    6.8103 H       1  UNL1        0.0000
@<TRIPOS>BOND
     1    21    20    1
     2    22    20    1
     3    18    16    1
     4    26    24    1
     5    20    23    1
     6    20     2    1
     7    16    17    1
     8    16     2    1
     9    16    19    1
    10    24    25    1
    11    24     2    1
    12    24    27    1
    13     2     3    1
    14    13    12    1
    15    15    12    1
    16    12    14    1
    17    12     1    1
    18     3     1    1
    19    11     8    1
    20     1     8    1
    21     1     4    1
    22     8    10    1
    23     8     9    1
    24     5     4    1
    25     4     7    1
    26     4     6    1
