@<TRIPOS>MOLECULE
1
 34 33 0 0 0
SMALL
GASTEIGER

@<TRIPOS>ATOM
      1 N           4.5422    8.5180    8.3770 N.3     1  UNL1        0.0000
      2 H           4.1992    7.6958    7.8721 H       1  UNL1        0.0000
      3 H           5.5664    8.4167    8.4404 H       1  UNL1        0.0000
      4 SI          4.4486    5.9928   13.1388 Si      1  UNL1        0.0000
      5 C           3.9942    8.5495    9.7346 C.3     1  UNL1        0.0000
      6 H           2.9030    8.6051    9.6749 H       1  UNL1        0.0000
      7 H           4.3719    9.4582   10.2147 H       1  UNL1        0.0000
      8 C           4.4074    7.3272   10.5582 C.3     1  UNL1        0.0000
      9 H           5.4962    7.2561   10.5586 H       1  UNL1        0.0000
     10 H           4.0069    6.4230   10.0951 H       1  UNL1        0.0000
     11 C           3.9053    7.4353   11.9933 C.3     1  UNL1        0.0000
     12 H           2.8165    7.5011   11.9822 H       1  UNL1        0.0000
     13 H           4.2666    8.3759   12.4093 H       1  UNL1        0.0000
     14 C           3.7990    4.3190   12.4592 C.3     1  UNL1        0.0000
     15 H           3.6329    3.6328   13.2908 H       1  UNL1        0.0000
     16 H           2.8233    4.4714   11.9947 H       1  UNL1        0.0000
     17 C           4.7215    3.6388   11.4518 C.3     1  UNL1        0.0000
     18 H           4.2808    2.7104   11.0920 H       1  UNL1        0.0000
     19 H           5.6791    3.4027   11.9070 H       1  UNL1        0.0000
     20 H           4.9065    4.2804   10.5942 H       1  UNL1        0.0000
     21 C           6.3577    6.0010   13.2762 C.3     1  UNL1        0.0000
     22 H           6.7982    5.7143   12.3204 H       1  UNL1        0.0000
     23 H           6.7064    7.0147   13.4795 H       1  UNL1        0.0000
     24 C           6.8938    5.0704   14.3609 C.3     1  UNL1        0.0000
     25 H           7.9821    5.0887   14.3822 H       1  UNL1        0.0000
     26 H           6.5748    4.0460   14.1844 H       1  UNL1        0.0000
     27 H           6.5306    5.3718   15.3399 H       1  UNL1        0.0000
     28 C           3.6420    6.2746   14.8522 C.3     1  UNL1        0.0000
     29 H           2.5556    6.2497   14.7557 H       1  UNL1        0.0000
     30 H           3.9059    5.4520   15.5176 H       1  UNL1        0.0000
     31 C           4.0470    7.5889   15.5109 C.3     1  UNL1        0.0000
     32 H           3.5798    7.6928   16.4888 H       1  UNL1        0.0000
     33 H           3.7433    8.4343   14.8991 H       1  UNL1        0.0000
     34 H           5.1246    7.6367   15.6437 H       1  UNL1        0.0000
@<TRIPOS>BOND
     1     2     1    1
     2     1     3    1
     3     1     5    1
     4     6     5    1
     5     5     7    1
     6     5     8    1
     7    10     8    1
     8     8     9    1
     9     8    11    1
    10    20    17    1
    11    18    17    1
    12    17    19    1
    13    17    14    1
    14    12    11    1
    15    11    13    1
    16    11     4    1
    17    16    14    1
    18    22    21    1
    19    14     4    1
    20    14    15    1
    21     4    21    1
    22     4    28    1
    23    21    23    1
    24    21    24    1
    25    26    24    1
    26    24    25    1
    27    24    27    1
    28    29    28    1
    29    28    31    1
    30    28    30    1
    31    33    31    1
    32    31    34    1
    33    31    32    1
