@<TRIPOS>MOLECULE
27
 27 26 0 0 0
SMALL
GASTEIGER

@<TRIPOS>ATOM
      1 SI          6.6636   -3.2240   34.6814 Si      1  UNL1        0.0000
      2 C           5.0341   -2.7058   35.5521 C.3     1  UNL1        0.0000
      3 H           4.5581   -1.8794   35.0367 H       1  UNL1        0.0000
      4 H           5.2129   -2.3998   36.5763 H       1  UNL1        0.0000
      5 H           4.3283   -3.5307   35.5733 H       1  UNL1        0.0000
      6 SI          8.8430   -2.4470   36.5642 Si      1  UNL1        0.0000
      7 C           6.8563   -5.0895   35.0647 C.3     1  UNL1        0.0000
      8 H           7.8355   -5.4595   34.7838 H       1  UNL1        0.0000
      9 H           6.1133   -5.6770   34.5341 H       1  UNL1        0.0000
     10 H           6.7255   -5.2784   36.1244 H       1  UNL1        0.0000
     11 C           6.3068   -3.1309   32.7959 C.3     1  UNL1        0.0000
     12 H           6.6105   -2.1730   32.3795 H       1  UNL1        0.0000
     13 H           5.2431   -3.2444   32.6116 H       1  UNL1        0.0000
     14 H           6.8127   -3.9174   32.2447 H       1  UNL1        0.0000
     15 C           9.6020   -4.1667   36.9205 C.3     1  UNL1        0.0000
     16 H          10.2628   -4.1242   37.7811 H       1  UNL1        0.0000
     17 H          10.1853   -4.5179   36.0761 H       1  UNL1        0.0000
     18 H           8.8388   -4.9058   37.1305 H       1  UNL1        0.0000
     19 C           7.7266   -2.0486   38.0767 C.3     1  UNL1        0.0000
     20 H           8.2997   -2.0202   38.9984 H       1  UNL1        0.0000
     21 H           6.9607   -2.8076   38.1925 H       1  UNL1        0.0000
     22 H           7.2255   -1.0910   37.9692 H       1  UNL1        0.0000
     23 C          10.3357   -1.2380   36.6590 C.3     1  UNL1        0.0000
     24 H          10.3003   -0.6300   37.5592 H       1  UNL1        0.0000
     25 H          10.3758   -0.5714   35.7946 H       1  UNL1        0.0000
     26 H          11.2669   -1.7943   36.6821 H       1  UNL1        0.0000
     27 N           8.0485   -2.2612   35.0451 N.3     1  UNL1        0.0000
@<TRIPOS>BOND
     1    14    11    1
     2    12    11    1
     3    13    11    1
     4    11     1    1
     5     9     7    1
     6     1    27    1
     7     1     7    1
     8     1     2    1
     9     8     7    1
    10     3     2    1
    11    27     6    1
    12     7    10    1
    13     2     5    1
    14     2     4    1
    15    25    23    1
    16    17    15    1
    17     6    23    1
    18     6    15    1
    19     6    19    1
    20    23    26    1
    21    23    24    1
    22    15    18    1
    23    15    16    1
    24    22    19    1
    25    19    21    1
    26    19    20    1
