@<TRIPOS>MOLECULE
27
 27 26 0 0 0
SMALL
GASTEIGER

@<TRIPOS>ATOM
      1 SI          9.3217    7.0057    5.3189 Si      1  UNL1        0.0000
      2 C          10.7257    5.9724    6.1406 C.3     1  UNL1        0.0000
      3 H          10.8690    4.9997    5.6566 H       1  UNL1        0.0000
      4 H          10.4856    5.7824    7.1817 H       1  UNL1        0.0000
      5 H          11.6722    6.5064    6.1196 H       1  UNL1        0.0000
      6 SI          7.5003    6.8159    2.9557 Si      1  UNL1        0.0000
      7 C           8.0732    7.3566    6.7262 C.3     1  UNL1        0.0000
      8 H           7.5558    6.4512    7.0243 H       1  UNL1        0.0000
      9 H           7.3277    8.0798    6.4185 H       1  UNL1        0.0000
     10 H           8.5743    7.7544    7.6035 H       1  UNL1        0.0000
     11 C          10.0855    8.7102    4.8791 C.3     1  UNL1        0.0000
     12 H          10.7817    8.6386    4.0497 H       1  UNL1        0.0000
     13 H          10.6154    9.1433    5.7218 H       1  UNL1        0.0000
     14 H           9.3057    9.4066    4.5908 H       1  UNL1        0.0000
     15 C           6.0052    7.5717    3.8806 C.3     1  UNL1        0.0000
     16 H           6.2623    8.5436    4.2870 H       1  UNL1        0.0000
     17 H           5.6910    6.9442    4.7070 H       1  UNL1        0.0000
     18 H           5.1533    7.7067    3.2214 H       1  UNL1        0.0000
     19 C           6.7774    5.4210    1.8470 C.3     1  UNL1        0.0000
     20 H           5.9541    4.9010    2.3275 H       1  UNL1        0.0000
     21 H           7.5394    4.6896    1.5781 H       1  UNL1        0.0000
     22 H           6.3926    5.8428    0.9235 H       1  UNL1        0.0000
     23 C           8.0966    8.1808    1.7480 C.3     1  UNL1        0.0000
     24 H           8.7376    8.8944    2.2525 H       1  UNL1        0.0000
     25 H           7.2574    8.7292    1.3310 H       1  UNL1        0.0000
     26 H           8.6549    7.7562    0.9209 H       1  UNL1        0.0000
     27 N           8.7117    6.1353    3.9678 N.3     1  UNL1        0.0000
@<TRIPOS>BOND
     1    26    23    1
     2    22    19    1
     3    25    23    1
     4    21    19    1
     5    23    24    1
     6    23     6    1
     7    19    20    1
     8    19     6    1
     9     6    15    1
    10     6    27    1
    11    18    15    1
    12    15    16    1
    13    15    17    1
    14    27     1    1
    15    12    11    1
    16    14    11    1
    17    11     1    1
    18    11    13    1
    19     1     2    1
    20     1     7    1
    21     3     2    1
    22     5     2    1
    23     2     4    1
    24     9     7    1
    25     7     8    1
    26     7    10    1
