@<TRIPOS>MOLECULE
3
 27 26 0 0 0
SMALL
GASTEIGER

@<TRIPOS>ATOM
      1 SI          4.7938   -2.5902    4.6569 Si      1  UNL1        0.0000
      2 SI          2.2677   -2.0235    6.2017 Si      1  UNL1        0.0000
      3 N           3.9850   -2.0292    6.0851 N.3     1  UNL1        0.0000
      4 C           6.5621   -3.1102    5.1862 C.3     1  UNL1        0.0000
      5 H           7.1370   -2.2572    5.5588 H       1  UNL1        0.0000
      6 H           7.1110   -3.5133    4.3407 H       1  UNL1        0.0000
      7 H           6.5500   -3.8790    5.9571 H       1  UNL1        0.0000
      8 C           3.9710   -4.0947    3.8206 C.3     1  UNL1        0.0000
      9 H           3.8345   -4.9144    4.5167 H       1  UNL1        0.0000
     10 H           4.5743   -4.4568    2.9952 H       1  UNL1        0.0000
     11 H           2.9977   -3.8280    3.4258 H       1  UNL1        0.0000
     12 C           4.9851   -1.2261    3.3218 C.3     1  UNL1        0.0000
     13 H           5.6762   -0.4543    3.6493 H       1  UNL1        0.0000
     14 H           4.0338   -0.7565    3.0944 H       1  UNL1        0.0000
     15 H           5.3763   -1.6397    2.3978 H       1  UNL1        0.0000
     16 C           1.4716   -3.7580    6.3778 C.3     1  UNL1        0.0000
     17 H           1.5112   -4.2924    5.4362 H       1  UNL1        0.0000
     18 H           0.4278   -3.6828    6.6672 H       1  UNL1        0.0000
     19 H           1.9788   -4.3651    7.1200 H       1  UNL1        0.0000
     20 C           1.3695   -1.1713    4.7411 C.3     1  UNL1        0.0000
     21 H           1.7324   -0.1629    4.5700 H       1  UNL1        0.0000
     22 H           0.2989   -1.1157    4.9123 H       1  UNL1        0.0000
     23 H           1.5286   -1.7345    3.8282 H       1  UNL1        0.0000
     24 C           1.8159   -1.0509    7.7991 C.3     1  UNL1        0.0000
     25 H           2.6485   -1.0572    8.5073 H       1  UNL1        0.0000
     26 H           0.9596   -1.4947    8.2971 H       1  UNL1        0.0000
     27 H           1.5573   -0.0181    7.5814 H       1  UNL1        0.0000
@<TRIPOS>BOND
     1    15    12    1
     2    10     8    1
     3    14    12    1
     4    12    13    1
     5    12     1    1
     6    11     8    1
     7     8     9    1
     8     8     1    1
     9    23    20    1
    10     6     4    1
    11    21    20    1
    12     1     4    1
    13     1     3    1
    14    20    22    1
    15    20     2    1
    16     4     5    1
    17     4     7    1
    18    17    16    1
    19     3     2    1
    20     2    16    1
    21     2    24    1
    22    16    18    1
    23    16    19    1
    24    27    24    1
    25    24    26    1
    26    24    25    1
