@<TRIPOS>MOLECULE
3
 27 26 0 0 0
SMALL
GASTEIGER

@<TRIPOS>ATOM
      1 SI         -2.0084    4.7713    6.3454 Si      1  UNL1        0.0000
      2 SI         -1.3912    7.7248    6.5808 Si      1  UNL1        0.0000
      3 N          -1.2603    6.2080    5.7902 N.3     1  UNL1        0.0000
      4 C          -1.9018    4.4577    8.2336 C.3     1  UNL1        0.0000
      5 H          -2.2763    3.4744    8.5008 H       1  UNL1        0.0000
      6 H          -2.4960    5.1928    8.7649 H       1  UNL1        0.0000
      7 H          -0.8850    4.5349    8.6033 H       1  UNL1        0.0000
      8 C          -1.1853    3.2606    5.4819 C.3     1  UNL1        0.0000
      9 H          -0.3826    2.8476    6.0839 H       1  UNL1        0.0000
     10 H          -0.7758    3.5334    4.5038 H       1  UNL1        0.0000
     11 H          -1.9095    2.4671    5.3207 H       1  UNL1        0.0000
     12 C          -3.8874    4.6412    5.9482 C.3     1  UNL1        0.0000
     13 H          -4.4077    4.0509    6.6957 H       1  UNL1        0.0000
     14 H          -4.0626    4.1704    4.9861 H       1  UNL1        0.0000
     15 H          -4.3481    5.6223    5.9284 H       1  UNL1        0.0000
     16 C          -0.4418    7.8731    8.2468 C.3     1  UNL1        0.0000
     17 H           0.6236    8.0230    8.0987 H       1  UNL1        0.0000
     18 H          -0.5698    6.9828    8.8513 H       1  UNL1        0.0000
     19 H          -0.8086    8.7147    8.8262 H       1  UNL1        0.0000
     20 C          -3.1923    8.2384    6.9924 C.3     1  UNL1        0.0000
     21 H          -3.8258    8.2416    6.1111 H       1  UNL1        0.0000
     22 H          -3.2363    9.2296    7.4319 H       1  UNL1        0.0000
     23 H          -3.6254    7.5431    7.7031 H       1  UNL1        0.0000
     24 C          -0.6510    9.0723    5.4377 C.3     1  UNL1        0.0000
     25 H           0.2129    8.6937    4.8910 H       1  UNL1        0.0000
     26 H          -0.3201    9.9280    6.0189 H       1  UNL1        0.0000
     27 H          -1.3752    9.4360    4.7153 H       1  UNL1        0.0000
@<TRIPOS>BOND
     1    10     8    1
     2    27    24    1
     3    25    24    1
     4    14    12    1
     5    11     8    1
     6    24    26    1
     7    24     2    1
     8     8     9    1
     9     8     1    1
    10     3     1    1
    11     3     2    1
    12    15    12    1
    13    12     1    1
    14    12    13    1
    15    21    20    1
    16     1     4    1
    17     2    20    1
    18     2    16    1
    19    20    22    1
    20    20    23    1
    21    17    16    1
    22     4     5    1
    23     4     7    1
    24     4     6    1
    25    16    19    1
    26    16    18    1
