@<TRIPOS>MOLECULE
1
 11 11 0 0 0
SMALL
GASTEIGER

@<TRIPOS>ATOM
      1 N           2.9761    6.8309   12.8976 N.pl3   1  UNL1       -0.2487
      2 C           3.6137    5.6765   13.1928 C.3     1  UNL1        0.0840
      3 C           3.7967    5.2285   14.4809 C.2     1  UNL1       -0.0600
      4 C           3.3150    5.9871   15.5501 C.2     1  UNL1       -0.0626
      5 C           2.6639    7.1781   15.2522 C.2     1  UNL1       -0.0466
      6 C           2.5014    7.5575   13.9352 C.2     1  UNL1        0.0121
      7 H           4.0109    5.1288   12.3422 H       1  UNL1        0.0584
      8 H           4.3118    4.2965   14.6592 H       1  UNL1        0.0592
      9 H           3.4487    5.6598   16.5688 H       1  UNL1        0.0615
     10 H           2.2748    7.8039   16.0414 H       1  UNL1        0.0630
     11 H           1.9908    8.4749   13.6598 H       1  UNL1        0.0797
@<TRIPOS>BOND
     1     7     2    1
     2     1     2    1
     3     1     6    1
     4     2     3    1
     5    11     6    1
     6     6     5    2
     7     3     8    1
     8     3     4    2
     9     5     4    1
    10     5    10    1
    11     4     9    1
