@<TRIPOS>MOLECULE
1
 9 8 0 0 0
SMALL
GASTEIGER

@<TRIPOS>ATOM
      1 N          -2.6690    4.7892    6.3218 N.3     1  UNL1       -0.2469
      2 C          -2.4880    5.7007    7.4328 C.3     1  UNL1        0.0021
      3 H          -2.9068    6.6956    7.1990 H       1  UNL1        0.0405
      4 H          -1.4302    5.8195    7.6676 H       1  UNL1        0.0405
      5 H          -3.0187    5.3400    8.3337 H       1  UNL1        0.0405
      6 C          -4.0756    4.7731    5.9834 C.3     1  UNL1        0.0021
      7 H          -4.4337    5.7899    5.7378 H       1  UNL1        0.0405
      8 H          -4.6862    4.4241    6.8362 H       1  UNL1        0.0405
      9 H          -4.2724    4.1290    5.1273 H       1  UNL1        0.0405
@<TRIPOS>BOND
     1     9     6    1
     2     7     6    1
     3     6     1    1
     4     6     8    1
     5     1     2    1
     6     3     2    1
     7     2     4    1
     8     2     5    1
