@<TRIPOS>MOLECULE
1
 9 8 0 0 0
SMALL
GASTEIGER

@<TRIPOS>ATOM
      1 N           2.1287    3.4497    4.5920 N.3     1  UNL1       -0.2469
      2 C           0.8907    3.0847    3.9358 C.3     1  UNL1        0.0021
      3 H           0.0507    3.6915    4.3191 H       1  UNL1        0.0405
      4 H           0.6436    2.0280    4.1283 H       1  UNL1        0.0405
      5 H           0.9778    3.2306    2.8582 H       1  UNL1        0.0405
      6 C           2.0057    3.1514    5.9988 C.3     1  UNL1        0.0021
      7 H           1.1353    3.6743    6.4340 H       1  UNL1        0.0405
      8 H           2.8943    3.4542    6.5480 H       1  UNL1        0.0405
      9 H           1.8442    2.0707    6.1585 H       1  UNL1        0.0405
@<TRIPOS>BOND
     1     5     2    1
     2     2     4    1
     3     2     3    1
     4     2     1    1
     5     1     6    1
     6     6     9    1
     7     6     7    1
     8     6     8    1
