@<TRIPOS>MOLECULE
1
 9 8 0 0 0
SMALL
GASTEIGER

@<TRIPOS>ATOM
      1 N           2.7621    4.8028    2.2493 N.3     1  UNL1       -0.2469
      2 C           3.2194    4.7975    0.8861 C.3     1  UNL1        0.0021
      3 H           2.3843    4.6266    0.1875 H       1  UNL1        0.0405
      4 H           3.9501    3.9971    0.7488 H       1  UNL1        0.0405
      5 H           3.6787    5.7642    0.6089 H       1  UNL1        0.0405
      6 C           1.7933    5.8480    2.4667 C.3     1  UNL1        0.0021
      7 H           0.8789    5.6730    1.8739 H       1  UNL1        0.0405
      8 H           2.1886    6.8325    2.1602 H       1  UNL1        0.0405
      9 H           1.5199    5.8894    3.5260 H       1  UNL1        0.0405
@<TRIPOS>BOND
     1     3     2    1
     2     5     2    1
     3     4     2    1
     4     2     1    1
     5     7     6    1
     6     8     6    1
     7     1     6    1
     8     6     9    1
