@<TRIPOS>MOLECULE
1
 9 8 0 0 0
SMALL
GASTEIGER

@<TRIPOS>ATOM
      1 N          -0.0828    3.8373    6.9536 N.3     1  UNL1       -0.2469
      2 C          -0.3467    3.4414    8.3148 C.3     1  UNL1        0.0021
      3 H          -0.0257    4.2218    9.0277 H       1  UNL1        0.0405
      4 H           0.2076    2.5238    8.5829 H       1  UNL1        0.0405
      5 H          -1.4160    3.2631    8.4578 H       1  UNL1        0.0405
      6 C           1.3279    4.0493    6.7572 C.3     1  UNL1        0.0021
      7 H           1.6910    4.9110    7.3468 H       1  UNL1        0.0405
      8 H           1.5242    4.2320    5.6998 H       1  UNL1        0.0405
      9 H           1.9173    3.1731    7.0810 H       1  UNL1        0.0405
@<TRIPOS>BOND
     1     8     6    1
     2     6     1    1
     3     6     9    1
     4     6     7    1
     5     1     2    1
     6     2     5    1
     7     2     4    1
     8     2     3    1
