@<TRIPOS>MOLECULE
1
 15 14 0 0 0
SMALL
GASTEIGER

@<TRIPOS>ATOM
      1 N           0.6698    4.3518    4.0766 N.3     1  UNL1       -0.2508
      2 C           0.6438    3.5645    2.8560 C.3     1  UNL1        0.0249
      3 C           0.9834    4.4560    1.6450 C.3     1  UNL1       -0.0460
      4 C          -0.7710    3.0013    2.6346 C.3     1  UNL1       -0.0460
      5 C           1.6774    2.4143    2.9130 C.3     1  UNL1       -0.0460
      6 H           1.4029    5.0555    3.9498 H       1  UNL1        0.1412
      7 H           1.9993    4.8382    1.7237 H       1  UNL1        0.0248
      8 H           0.9000    3.8938    0.7177 H       1  UNL1        0.0248
      9 H           0.3005    5.3020    1.6009 H       1  UNL1        0.0248
     10 H          -1.4781    3.8231    2.5322 H       1  UNL1        0.0248
     11 H          -0.8035    2.4028    1.7268 H       1  UNL1        0.0248
     12 H          -1.0794    2.3846    3.4729 H       1  UNL1        0.0248
     13 H           1.4768    1.7705    3.7694 H       1  UNL1        0.0248
     14 H           1.6447    1.8187    2.0025 H       1  UNL1        0.0248
     15 H           2.6784    2.8303    3.0250 H       1  UNL1        0.0248
@<TRIPOS>BOND
     1     8     3    1
     2     9     3    1
     3     3     7    1
     4     3     2    1
     5    11     4    1
     6    14     5    1
     7    10     4    1
     8     4     2    1
     9     4    12    1
    10     2     5    1
    11     2     1    1
    12     5    15    1
    13     5    13    1
    14     6     1    1
