@<TRIPOS>MOLECULE
1
 9 8 0 0 0
SMALL
GASTEIGER

@<TRIPOS>ATOM
      1 N           1.9970    2.4630    4.5976 N.3     1  UNL1       -0.2469
      2 C           1.9793    3.8551    4.9719 C.3     1  UNL1        0.0021
      3 H           1.1615    4.0617    5.6846 H       1  UNL1        0.0405
      4 H           1.8319    4.4679    4.0798 H       1  UNL1        0.0405
      5 H           2.9238    4.1462    5.4622 H       1  UNL1        0.0405
      6 C           2.1121    1.6230    5.7664 C.3     1  UNL1        0.0021
      7 H           3.0903    1.7605    6.2605 H       1  UNL1        0.0405
      8 H           2.0058    0.5684    5.4903 H       1  UNL1        0.0405
      9 H           1.3371    1.8703    6.5105 H       1  UNL1        0.0405
@<TRIPOS>BOND
     1     4     2    1
     2     1     2    1
     3     1     6    1
     4     2     5    1
     5     2     3    1
     6     8     6    1
     7     6     7    1
     8     6     9    1
