@<TRIPOS>MOLECULE
1
 9 8 0 0 0
SMALL
GASTEIGER

@<TRIPOS>ATOM
      1 N           2.6754    0.5698    2.5542 N.3     1  UNL1       -0.2469
      2 C           2.4792   -0.3390    1.4467 C.3     1  UNL1        0.0021
      3 H           3.4237   -0.4993    0.8982 H       1  UNL1        0.0405
      4 H           1.7446    0.0578    0.7413 H       1  UNL1        0.0405
      5 H           2.1420   -1.3340    1.7936 H       1  UNL1        0.0405
      6 C           3.8177    0.1389    3.3279 C.3     1  UNL1        0.0021
      7 H           3.6414   -0.8532    3.7832 H       1  UNL1        0.0405
      8 H           4.0411    0.8540    4.1208 H       1  UNL1        0.0405
      9 H           4.7115    0.0434    2.6872 H       1  UNL1        0.0405
@<TRIPOS>BOND
     1     4     2    1
     2     3     2    1
     3     2     5    1
     4     2     1    1
     5     1     6    1
     6     9     6    1
     7     6     7    1
     8     6     8    1
