@<TRIPOS>MOLECULE
1
 9 8 0 0 0
SMALL
GASTEIGER

@<TRIPOS>ATOM
      1 N           7.1804    9.4224    9.4332 N.3     1  UNL1       -0.2469
      2 C           8.3949   10.1815    9.6124 C.3     1  UNL1        0.0021
      3 H           8.3772   10.7293   10.5707 H       1  UNL1        0.0405
      4 H           8.5120   10.8997    8.7956 H       1  UNL1        0.0405
      5 H           9.2764    9.5193    9.6255 H       1  UNL1        0.0405
      6 C           7.0152    8.4572   10.4918 C.3     1  UNL1        0.0021
      7 H           6.0210    7.9986   10.4370 H       1  UNL1        0.0405
      8 H           7.1231    8.9333   11.4804 H       1  UNL1        0.0405
      9 H           7.7777    7.6607   10.4295 H       1  UNL1        0.0405
@<TRIPOS>BOND
     1     4     2    1
     2     1     2    1
     3     1     6    1
     4     2     5    1
     5     2     3    1
     6     9     6    1
     7     7     6    1
     8     6     8    1
