@<TRIPOS>MOLECULE
1
 9 8 0 0 0
SMALL
GASTEIGER

@<TRIPOS>ATOM
      1 N           5.5303    8.4105    7.2720 N.3     1  UNL1       -0.2469
      2 C           4.8911    8.5887    5.9898 C.3     1  UNL1        0.0021
      3 H           4.9379    9.6394    5.6860 H       1  UNL1        0.0405
      4 H           3.8348    8.2626    6.0134 H       1  UNL1        0.0405
      5 H           5.4011    7.9912    5.2165 H       1  UNL1        0.0405
      6 C           5.6830    7.0104    7.5767 C.3     1  UNL1        0.0021
      7 H           6.2855    6.8770    8.4765 H       1  UNL1        0.0405
      8 H           6.1806    6.4800    6.7480 H       1  UNL1        0.0405
      9 H           4.7011    6.5266    7.7310 H       1  UNL1        0.0405
@<TRIPOS>BOND
     1     5     2    1
     2     3     2    1
     3     2     4    1
     4     2     1    1
     5     8     6    1
     6     1     6    1
     7     6     9    1
     8     6     7    1
