@<TRIPOS>MOLECULE
3
 27 26 0 0 0
SMALL
GASTEIGER

@<TRIPOS>ATOM
      1 SI          5.6828   11.1192   25.1724 Si      1  UNL1        0.0000
      2 SI          8.3568   12.5742   25.0991 Si      1  UNL1        0.0000
      3 N           7.0103   11.8237   24.3268 N.3     1  UNL1        0.0000
      4 C           4.2942   12.3484   25.6871 C.3     1  UNL1        0.0000
      5 H           3.9263   12.9130   24.8376 H       1  UNL1        0.0000
      6 H           4.6373   13.0533   26.4382 H       1  UNL1        0.0000
      7 H           3.4496   11.8126   26.1110 H       1  UNL1        0.0000
      8 C           6.1508   10.2291   26.8044 C.3     1  UNL1        0.0000
      9 H           6.8754   10.8093   27.3637 H       1  UNL1        0.0000
     10 H           6.5762    9.2482   26.6290 H       1  UNL1        0.0000
     11 H           5.2780   10.0968   27.4355 H       1  UNL1        0.0000
     12 C           4.8492    9.8454   24.0129 C.3     1  UNL1        0.0000
     13 H           5.5883    9.2033   23.5381 H       1  UNL1        0.0000
     14 H           4.2847   10.3521   23.2338 H       1  UNL1        0.0000
     15 H           4.1589    9.2041   24.5535 H       1  UNL1        0.0000
     16 C           9.7240   11.3655   25.7080 C.3     1  UNL1        0.0000
     17 H          10.1002   10.7467   24.9007 H       1  UNL1        0.0000
     18 H           9.3566   10.7123   26.4933 H       1  UNL1        0.0000
     19 H          10.5676   11.9162   26.1144 H       1  UNL1        0.0000
     20 C           9.1966   13.7293   23.8252 C.3     1  UNL1        0.0000
     21 H           8.4709   14.3938   23.3609 H       1  UNL1        0.0000
     22 H           9.6825   13.1503   23.0431 H       1  UNL1        0.0000
     23 H           9.9561   14.3507   24.2911 H       1  UNL1        0.0000
     24 C           7.9209   13.6219   26.6466 C.3     1  UNL1        0.0000
     25 H           7.0133   13.2622   27.1166 H       1  UNL1        0.0000
     26 H           7.7758   14.6674   26.3998 H       1  UNL1        0.0000
     27 H           8.7140   13.5695   27.3852 H       1  UNL1        0.0000
@<TRIPOS>BOND
     1    22    20    1
     2    14    12    1
     3    21    20    1
     4    13    12    1
     5    20    23    1
     6    20     2    1
     7    12    15    1
     8    12     1    1
     9     3     2    1
    10     3     1    1
    11     5     4    1
    12    17    16    1
    13     2    16    1
    14     2    24    1
    15     1     4    1
    16     1     8    1
    17     4     7    1
    18     4     6    1
    19    16    19    1
    20    16    18    1
    21    26    24    1
    22    10     8    1
    23    24    25    1
    24    24    27    1
    25     8     9    1
    26     8    11    1
