@<TRIPOS>MOLECULE
3
 27 26 0 0 0
SMALL
GASTEIGER

@<TRIPOS>ATOM
      1 SI          8.5716    9.5424    7.0936 Si      1  UNL1        0.0000
      2 SI          6.2050    7.8664    7.8714 Si      1  UNL1        0.0000
      3 N           7.0693    8.7785    6.6842 N.3     1  UNL1        0.0000
      4 C          10.0764    8.3513    7.1638 C.3     1  UNL1        0.0000
      5 H           9.9009    7.5094    7.8247 H       1  UNL1        0.0000
      6 H          10.9625    8.8682    7.5210 H       1  UNL1        0.0000
      7 H          10.3016    7.9584    6.1763 H       1  UNL1        0.0000
      8 C           8.5225   10.4573    8.7714 C.3     1  UNL1        0.0000
      9 H           7.6647   11.1155    8.8421 H       1  UNL1        0.0000
     10 H           9.4147   11.0578    8.9136 H       1  UNL1        0.0000
     11 H           8.4675    9.7523    9.5924 H       1  UNL1        0.0000
     12 C           5.3688    8.9538    9.2184 C.3     1  UNL1        0.0000
     13 H           6.0914    9.2709    9.9606 H       1  UNL1        0.0000
     14 H           4.5948    8.3950    9.7355 H       1  UNL1        0.0000
     15 H           4.9086    9.8502    8.8156 H       1  UNL1        0.0000
     16 C           7.2269    6.5754    8.8489 C.3     1  UNL1        0.0000
     17 H           7.6652    5.8259    8.1976 H       1  UNL1        0.0000
     18 H           6.6078    6.0572    9.5750 H       1  UNL1        0.0000
     19 H           8.0347    7.0547    9.3917 H       1  UNL1        0.0000
     20 C           9.0115   10.8390    5.7504 C.3     1  UNL1        0.0000
     21 H           9.8448   10.4876    5.1490 H       1  UNL1        0.0000
     22 H           9.2993   11.7889    6.1897 H       1  UNL1        0.0000
     23 H           8.1703   11.0307    5.0858 H       1  UNL1        0.0000
     24 C           4.7889    6.9153    6.9910 C.3     1  UNL1        0.0000
     25 H           3.8192    7.3704    7.1659 H       1  UNL1        0.0000
     26 H           4.7276    5.9010    7.3699 H       1  UNL1        0.0000
     27 H           4.9513    6.8526    5.9130 H       1  UNL1        0.0000
@<TRIPOS>BOND
     1    23    20    1
     2    21    20    1
     3    20    22    1
     4    20     1    1
     5    27    24    1
     6     7     4    1
     7     3     1    1
     8     3     2    1
     9    24    25    1
    10    24    26    1
    11    24     2    1
    12     1     4    1
    13     1     8    1
    14     4     6    1
    15     4     5    1
    16     2    16    1
    17     2    12    1
    18    17    16    1
    19     8     9    1
    20     8    10    1
    21     8    11    1
    22    15    12    1
    23    16    19    1
    24    16    18    1
    25    12    14    1
    26    12    13    1
