@<TRIPOS>MOLECULE
3
 27 26 0 0 0
SMALL
GASTEIGER

@<TRIPOS>ATOM
      1 SI          7.0172    5.1657    4.0644 Si      1  UNL1        0.0000
      2 SI          4.7389    6.4486    2.5630 Si      1  UNL1        0.0000
      3 N           6.1117    6.5670    3.5970 N.3     1  UNL1        0.0000
      4 C           7.7462    4.1258    2.6249 C.3     1  UNL1        0.0000
      5 H           7.0663    3.3320    2.3372 H       1  UNL1        0.0000
      6 H           8.6827    3.6615    2.9187 H       1  UNL1        0.0000
      7 H           7.9383    4.7274    1.7449 H       1  UNL1        0.0000
      8 C           3.0845    6.4493    3.5457 C.3     1  UNL1        0.0000
      9 H           3.0389    5.6011    4.2204 H       1  UNL1        0.0000
     10 H           2.2327    6.3814    2.8760 H       1  UNL1        0.0000
     11 H           2.9586    7.3455    4.1458 H       1  UNL1        0.0000
     12 C           8.4903    5.7880    5.1139 C.3     1  UNL1        0.0000
     13 H           9.2268    6.2884    4.4891 H       1  UNL1        0.0000
     14 H           8.9937    4.9655    5.6145 H       1  UNL1        0.0000
     15 H           8.1577    6.4880    5.8824 H       1  UNL1        0.0000
     16 C           4.7276    7.9659    1.3885 C.3     1  UNL1        0.0000
     17 H           5.1888    8.8287    1.8644 H       1  UNL1        0.0000
     18 H           3.7205    8.2441    1.0954 H       1  UNL1        0.0000
     19 H           5.2790    7.7595    0.4767 H       1  UNL1        0.0000
     20 C           6.0097    3.9194    5.1188 C.3     1  UNL1        0.0000
     21 H           5.8715    4.2625    6.1379 H       1  UNL1        0.0000
     22 H           6.5089    2.9567    5.1610 H       1  UNL1        0.0000
     23 H           5.0272    3.7608    4.6875 H       1  UNL1        0.0000
     24 C           4.6388    4.9046    1.4445 C.3     1  UNL1        0.0000
     25 H           5.4959    4.8307    0.7854 H       1  UNL1        0.0000
     26 H           3.7477    4.9309    0.8251 H       1  UNL1        0.0000
     27 H           4.6018    3.9982    2.0374 H       1  UNL1        0.0000
@<TRIPOS>BOND
     1    19    16    1
     2    25    24    1
     3    26    24    1
     4    18    16    1
     5    16    17    1
     6    16     2    1
     7    24    27    1
     8    24     2    1
     9     7     4    1
    10     5     4    1
    11     2     8    1
    12     2     3    1
    13     4     6    1
    14     4     1    1
    15    10     8    1
    16     8    11    1
    17     8     9    1
    18     3     1    1
    19     1    12    1
    20     1    20    1
    21    13    12    1
    22    23    20    1
    23    12    14    1
    24    12    15    1
    25    20    22    1
    26    20    21    1
