@<TRIPOS>MOLECULE
1
 9 8 0 0 0
SMALL
GASTEIGER

@<TRIPOS>ATOM
      1 N           4.5211    2.5189    1.9872 N.3     1  UNL1       -0.2469
      2 C           5.6428    3.4113    1.7992 C.3     1  UNL1        0.0021
      3 H           5.6733    4.1764    2.5882 H       1  UNL1        0.0405
      4 H           5.5517    3.9002    0.8331 H       1  UNL1        0.0405
      5 H           6.5941    2.8641    1.8368 H       1  UNL1        0.0405
      6 C           4.6623    1.8939    3.2851 C.3     1  UNL1        0.0021
      7 H           5.6050    1.3343    3.3525 H       1  UNL1        0.0405
      8 H           3.8336    1.2105    3.4506 H       1  UNL1        0.0405
      9 H           4.6767    2.6447    4.0875 H       1  UNL1        0.0405
@<TRIPOS>BOND
     1     4     2    1
     2     2     5    1
     3     2     1    1
     4     2     3    1
     5     1     6    1
     6     6     7    1
     7     6     8    1
     8     6     9    1
