@<TRIPOS>MOLECULE
1
 9 8 0 0 0
SMALL
GASTEIGER

@<TRIPOS>ATOM
      1 N           1.8254    1.8446    2.3928 N.3     1  UNL1       -0.2469
      2 C           1.4689    2.7722    3.4395 C.3     1  UNL1        0.0021
      3 H           0.5374    3.3087    3.2001 H       1  UNL1        0.0405
      4 H           2.2703    3.4993    3.5713 H       1  UNL1        0.0405
      5 H           1.3123    2.2538    4.3945 H       1  UNL1        0.0405
      6 C           0.8419    0.7901    2.3047 C.3     1  UNL1        0.0021
      7 H           0.5934    0.3964    3.2974 H       1  UNL1        0.0405
      8 H           1.2293   -0.0213    1.6906 H       1  UNL1        0.0405
      9 H          -0.0856    1.1611    1.8415 H       1  UNL1        0.0405
@<TRIPOS>BOND
     1     8     6    1
     2     9     6    1
     3     6     1    1
     4     6     7    1
     5     1     2    1
     6     3     2    1
     7     2     4    1
     8     2     5    1
