@<TRIPOS>MOLECULE
7
 27 26 0 0 0
SMALL
GASTEIGER

@<TRIPOS>ATOM
      1 C           5.6662    1.8144   -1.5318 C.3     1  UNL1        0.0000
      2 H           5.8508    1.7215   -0.4668 H       1  UNL1        0.0000
      3 H           6.6223    1.9628   -2.0241 H       1  UNL1        0.0000
      4 H           5.2688    0.8688   -1.8853 H       1  UNL1        0.0000
      5 SI          4.4681    3.2590   -1.9319 Si      1  UNL1        0.0000
      6 SI          3.1237    5.4192   -0.3027 Si      1  UNL1        0.0000
      7 N           3.7144    3.7974   -0.4658 N.3     1  UNL1        0.0000
      8 C           5.5363    4.6002   -2.7730 C.3     1  UNL1        0.0000
      9 H           4.9394    5.4470   -3.0897 H       1  UNL1        0.0000
     10 H           6.0136    4.1880   -3.6556 H       1  UNL1        0.0000
     11 H           6.3175    4.9683   -2.1177 H       1  UNL1        0.0000
     12 C           3.1826    2.6793   -3.2312 C.3     1  UNL1        0.0000
     13 H           2.3257    2.2094   -2.7592 H       1  UNL1        0.0000
     14 H           3.6121    1.9678   -3.9302 H       1  UNL1        0.0000
     15 H           2.8106    3.5198   -3.8085 H       1  UNL1        0.0000
     16 C           4.5199    6.7237   -0.1884 C.3     1  UNL1        0.0000
     17 H           5.2848    6.4431    0.5278 H       1  UNL1        0.0000
     18 H           4.1085    7.6774    0.1254 H       1  UNL1        0.0000
     19 H           5.0039    6.8774   -1.1442 H       1  UNL1        0.0000
     20 C           1.9246    5.9131   -1.7064 C.3     1  UNL1        0.0000
     21 H           2.4450    5.9940   -2.6549 H       1  UNL1        0.0000
     22 H           1.4527    6.8695   -1.5046 H       1  UNL1        0.0000
     23 H           1.1407    5.1714   -1.8224 H       1  UNL1        0.0000
     24 C           2.1904    5.5309    1.3641 C.3     1  UNL1        0.0000
     25 H           1.3073    4.8972    1.3652 H       1  UNL1        0.0000
     26 H           1.8573    6.5473    1.5510 H       1  UNL1        0.0000
     27 H           2.8323    5.2421    2.1934 H       1  UNL1        0.0000
@<TRIPOS>BOND
     1    14    12    1
     2    15    12    1
     3    10     8    1
     4    12    13    1
     5    12     5    1
     6     9     8    1
     7     8    11    1
     8     8     5    1
     9    21    20    1
    10     3     1    1
    11     5     1    1
    12     5     7    1
    13     4     1    1
    14    23    20    1
    15    20    22    1
    16    20     6    1
    17     1     2    1
    18    19    16    1
    19     7     6    1
    20     6    16    1
    21     6    24    1
    22    16    18    1
    23    16    17    1
    24    24    25    1
    25    24    26    1
    26    24    27    1
