@<TRIPOS>MOLECULE
1
 9 8 0 0 0
SMALL
GASTEIGER

@<TRIPOS>ATOM
      1 N           3.2726    0.4150    0.1815 N.3     1  UNL1       -0.2469
      2 C           4.2891   -0.4591    0.7243 C.3     1  UNL1        0.0021
      3 H           3.8313   -1.3097    1.2486 H       1  UNL1        0.0405
      4 H           4.9032    0.0942    1.4282 H       1  UNL1        0.0405
      5 H           4.9337   -0.8638   -0.0662 H       1  UNL1        0.0405
      6 C           2.5647   -0.2666   -0.8827 C.3     1  UNL1        0.0021
      7 H           3.2127   -0.4267   -1.7554 H       1  UNL1        0.0405
      8 H           1.7000    0.3161   -1.1929 H       1  UNL1        0.0405
      9 H           2.2140   -1.2511   -0.5456 H       1  UNL1        0.0405
@<TRIPOS>BOND
     1     7     6    1
     2     8     6    1
     3     6     9    1
     4     6     1    1
     5     5     2    1
     6     1     2    1
     7     2     3    1
     8     2     4    1
