@<TRIPOS>MOLECULE
1
 9 8 0 0 0
SMALL
GASTEIGER

@<TRIPOS>ATOM
      1 N           0.1548    1.6061    1.7393 N.3     1  UNL1       -0.2469
      2 C          -0.6677    2.7690    1.4910 C.3     1  UNL1        0.0021
      3 H          -1.2339    2.6644    0.5553 H       1  UNL1        0.0405
      4 H          -0.0305    3.6523    1.4136 H       1  UNL1        0.0405
      5 H          -1.3984    2.9273    2.2997 H       1  UNL1        0.0405
      6 C          -0.6563    0.4089    1.7325 C.3     1  UNL1        0.0021
      7 H          -1.5079    0.4995    2.4214 H       1  UNL1        0.0405
      8 H          -0.0470   -0.4366    2.0443 H       1  UNL1        0.0405
      9 H          -1.0587    0.2119    0.7285 H       1  UNL1        0.0405
@<TRIPOS>BOND
     1     3     2    1
     2     9     6    1
     3     4     2    1
     4     2     1    1
     5     2     5    1
     6     6     1    1
     7     6     8    1
     8     6     7    1
