@<TRIPOS>MOLECULE
1
 9 8 0 0 0
SMALL
GASTEIGER

@<TRIPOS>ATOM
      1 N           2.9614    2.7815    3.8494 N.3     1  UNL1       -0.2469
      2 C           4.2447    2.3965    4.3824 C.3     1  UNL1        0.0021
      3 H           4.9219    3.2595    4.4676 H       1  UNL1        0.0405
      4 H           4.7034    1.6566    3.7250 H       1  UNL1        0.0405
      5 H           4.1376    1.9528    5.3825 H       1  UNL1        0.0405
      6 C           2.3818    3.8691    4.5948 C.3     1  UNL1        0.0021
      7 H           2.1133    3.5589    5.6155 H       1  UNL1        0.0405
      8 H           1.4770    4.2117    4.0859 H       1  UNL1        0.0405
      9 H           3.0751    4.7198    4.6799 H       1  UNL1        0.0405
@<TRIPOS>BOND
     1     4     2    1
     2     1     2    1
     3     1     6    1
     4     8     6    1
     5     2     3    1
     6     2     5    1
     7     6     9    1
     8     6     7    1
