@<TRIPOS>MOLECULE
1
 9 8 0 0 0
SMALL
GASTEIGER

@<TRIPOS>ATOM
      1 N           2.5699    2.9233    0.9902 N.3     1  UNL1       -0.2469
      2 C           3.6144    3.9207    1.0403 C.3     1  UNL1        0.0021
      3 H           4.5244    3.5671    0.5329 H       1  UNL1        0.0405
      4 H           3.8570    4.1455    2.0763 H       1  UNL1        0.0405
      5 H           3.3023    4.8492    0.5424 H       1  UNL1        0.0405
      6 C           2.2041    2.6967   -0.3911 C.3     1  UNL1        0.0021
      7 H           1.9121    3.6332   -0.8849 H       1  UNL1        0.0405
      8 H           1.3715    1.9972   -0.4377 H       1  UNL1        0.0405
      9 H           3.0489    2.2763   -0.9550 H       1  UNL1        0.0405
@<TRIPOS>BOND
     1     9     6    1
     2     7     6    1
     3     8     6    1
     4     6     1    1
     5     3     2    1
     6     5     2    1
     7     1     2    1
     8     2     4    1
