@<TRIPOS>MOLECULE
1
 6 5 0 0 0
SMALL
GASTEIGER

@<TRIPOS>ATOM
      1 N          13.6281    0.2209    6.8365 N.3     1  UNL1       -0.2731
      2 H          13.9428   -0.7518    6.8874 H       1  UNL1        0.1366
      3 H          14.2462    0.7117    6.1790 H       1  UNL1        0.1366
      4 N          13.6431    0.7752    8.1541 N.3     1  UNL1       -0.2731
      5 H          14.5997    0.8889    8.4989 H       1  UNL1        0.1366
      6 H          13.2253    1.7061    8.0973 H       1  UNL1        0.1366
@<TRIPOS>BOND
     1     3     1    1
     2     1     2    1
     3     1     4    1
     4     6     4    1
     5     4     5    1
