@<TRIPOS>MOLECULE
1
 6 5 0 0 0
SMALL
GASTEIGER

@<TRIPOS>ATOM
      1 N          12.0716   -1.9948    5.7254 N.3     1  UNL1       -0.2731
      2 H          11.5742   -2.3341    6.5527 H       1  UNL1        0.1366
      3 H          11.5564   -2.3117    4.8962 H       1  UNL1        0.1366
      4 N          13.4141   -2.4843    5.7750 N.3     1  UNL1       -0.2731
      5 H          13.4401   -3.5027    5.6750 H       1  UNL1        0.1366
      6 H          13.9111   -2.0885    4.9748 H       1  UNL1        0.1366
@<TRIPOS>BOND
     1     3     1    1
     2     6     4    1
     3     5     4    1
     4     1     4    1
     5     1     2    1
