@<TRIPOS>MOLECULE
1
 6 5 0 0 0
SMALL
GASTEIGER

@<TRIPOS>ATOM
      1 N          10.9474   -0.2395    7.7540 N.3     1  UNL1       -0.2731
      2 H          11.7521   -0.1464    8.3795 H       1  UNL1        0.1366
      3 H          10.3425    0.5771    7.8995 H       1  UNL1        0.1366
      4 N          10.2969   -1.4826    8.0280 N.3     1  UNL1       -0.2731
      5 H           9.8848   -1.4863    8.9649 H       1  UNL1        0.1366
      6 H           9.5299   -1.5777    7.3582 H       1  UNL1        0.1366
@<TRIPOS>BOND
     1     6     4    1
     2     1     3    1
     3     1     4    1
     4     1     2    1
     5     4     5    1
