@<TRIPOS>MOLECULE
1
 9 8 0 0 0
SMALL
GASTEIGER

@<TRIPOS>ATOM
      1 N           0.0337    1.8445    2.3235 N.3     1  UNL1       -0.2469
      2 C           0.0855    2.6176    1.1050 C.3     1  UNL1        0.0021
      3 H           0.6975    2.1055    0.3351 H       1  UNL1        0.0405
      4 H           0.5434    3.5941    1.2923 H       1  UNL1        0.0405
      5 H          -0.9170    2.7757    0.6497 H       1  UNL1        0.0405
      6 C          -0.5304    0.5501    2.0262 C.3     1  UNL1        0.0021
      7 H          -1.5167    0.6216    1.5230 H       1  UNL1        0.0405
      8 H          -0.6513   -0.0367    2.9426 H       1  UNL1        0.0405
      9 H           0.1292   -0.0229    1.3426 H       1  UNL1        0.0405
@<TRIPOS>BOND
     1     3     2    1
     2     5     2    1
     3     2     4    1
     4     2     1    1
     5     9     6    1
     6     7     6    1
     7     6     1    1
     8     6     8    1
