@<TRIPOS>MOLECULE
1
 9 8 0 0 0
SMALL
GASTEIGER

@<TRIPOS>ATOM
      1 N          -1.1415    1.8447    5.7742 N.3     1  UNL1       -0.2469
      2 C          -1.1931    2.6179    6.9926 C.3     1  UNL1        0.0021
      3 H          -1.8050    2.1059    7.7627 H       1  UNL1        0.0405
      4 H          -1.6510    3.5944    6.8054 H       1  UNL1        0.0405
      5 H          -0.1905    2.7761    7.4478 H       1  UNL1        0.0405
      6 C          -0.5773    0.5504    6.0714 C.3     1  UNL1        0.0021
      7 H           0.4091    0.6219    6.5746 H       1  UNL1        0.0405
      8 H          -0.4566   -0.0365    5.1550 H       1  UNL1        0.0405
      9 H          -1.2368   -0.0227    6.7552 H       1  UNL1        0.0405
@<TRIPOS>BOND
     1     8     6    1
     2     1     6    1
     3     1     2    1
     4     6     7    1
     5     6     9    1
     6     4     2    1
     7     2     5    1
     8     2     3    1
