@<TRIPOS>MOLECULE
1
 9 8 0 0 0
SMALL
GASTEIGER

@<TRIPOS>ATOM
      1 N          -0.5539    4.9400    4.0485 N.3     1  UNL1       -0.2469
      2 C          -0.1876    5.7708    5.1673 C.3     1  UNL1        0.0021
      3 H           0.6937    6.4071    4.9378 H       1  UNL1        0.0405
      4 H           0.0591    5.1543    6.0373 H       1  UNL1        0.0405
      5 H          -1.0062    6.4651    5.4506 H       1  UNL1        0.0405
      6 C          -0.9201    5.7708    2.9297 C.3     1  UNL1        0.0021
      7 H          -1.8013    6.4072    3.1593 H       1  UNL1        0.0405
      8 H          -1.1669    5.1543    2.0597 H       1  UNL1        0.0405
      9 H          -0.1014    6.4650    2.6463 H       1  UNL1        0.0405
@<TRIPOS>BOND
     1     8     6    1
     2     9     6    1
     3     6     7    1
     4     6     1    1
     5     1     2    1
     6     3     2    1
     7     2     5    1
     8     2     4    1
