@<TRIPOS>MOLECULE
2
 56 56 0 0 0
SMALL
GASTEIGER

@<TRIPOS>ATOM
      1 P           3.9773    5.8563    6.6788 P.3     1  UNL1        0.0000
      2 N           3.9691    5.1442    5.1730 N.3     1  UNL1        0.0000
      3 N           3.8108    7.5800    6.4270 N.3     1  UNL1        0.0000
      4 SI          4.8299    5.3389    3.7050 Si      1  UNL1        0.0000
      5 C           4.4100    6.9622    2.7734 C.3     1  UNL1        0.0000
      6 C           6.7330    5.1139    3.7441 C.3     1  UNL1        0.0000
      7 C           4.1476    3.9033    2.6207 C.3     1  UNL1        0.0000
      8 SI          4.9353    8.9069    6.1863 Si      1  UNL1        0.0000
      9 C           5.1113    9.8192    7.8570 C.3     1  UNL1        0.0000
     10 C           4.2057   10.0816    4.8594 C.3     1  UNL1        0.0000
     11 C           6.7042    8.5720    5.5491 C.3     1  UNL1        0.0000
     12 SI          2.1124    7.8961    6.7784 Si      1  UNL1        0.0000
     13 C           1.5003    9.6901    6.5906 C.3     1  UNL1        0.0000
     14 C           1.7821    7.4621    8.6148 C.3     1  UNL1        0.0000
     15 C           1.0889    6.8765    5.5189 C.3     1  UNL1        0.0000
     16 C           5.8852    6.0376    8.6561 C.ar    1  UNL1        0.0000
     17 C           6.8007    6.9646    9.1379 C.ar    1  UNL1        0.0000
     18 C           6.8696    7.2580   10.4895 C.ar    1  UNL1        0.0000
     19 C           6.0213    6.6292   11.3836 C.ar    1  UNL1        0.0000
     20 C           5.1090    5.6965   10.9174 C.ar    1  UNL1        0.0000
     21 C           5.0455    5.4043    9.5686 C.ar    1  UNL1        0.0000
     22 C           5.7685    5.7091    7.2083 C.3     1  UNL1        0.0000
     23 H           4.8185    7.8293    3.2777 H       1  UNL1        0.0000
     24 H           3.3345    7.1041    2.7011 H       1  UNL1        0.0000
     25 H           4.8095    6.9446    1.7640 H       1  UNL1        0.0000
     26 H           7.2430    5.9244    4.2514 H       1  UNL1        0.0000
     27 H           7.1274    5.0636    2.7336 H       1  UNL1        0.0000
     28 H           7.0040    4.1951    4.2531 H       1  UNL1        0.0000
     29 H           3.5079    4.2876    1.8317 H       1  UNL1        0.0000
     30 H           3.5714    3.1844    3.2146 H       1  UNL1        0.0000
     31 H           4.9544    3.3652    2.1334 H       1  UNL1        0.0000
     32 H           4.1678   10.2502    8.1749 H       1  UNL1        0.0000
     33 H           5.8337   10.6264    7.7869 H       1  UNL1        0.0000
     34 H           5.4390    9.1462    8.6436 H       1  UNL1        0.0000
     35 H           3.7974   10.9773    5.3130 H       1  UNL1        0.0000
     36 H           3.4140    9.6118    4.2874 H       1  UNL1        0.0000
     37 H           4.9711   10.4017    4.1590 H       1  UNL1        0.0000
     38 H           7.3719    8.1945    6.3149 H       1  UNL1        0.0000
     39 H           7.1241    9.5136    5.2054 H       1  UNL1        0.0000
     40 H           6.7214    7.8852    4.7113 H       1  UNL1        0.0000
     41 H           2.1299   10.3939    7.1186 H       1  UNL1        0.0000
     42 H           0.5068    9.7585    7.0209 H       1  UNL1        0.0000
     43 H           1.4296   10.0157    5.5607 H       1  UNL1        0.0000
     44 H           2.0762    8.2979    9.2432 H       1  UNL1        0.0000
     45 H           2.3544    6.5998    8.9433 H       1  UNL1        0.0000
     46 H           0.7305    7.2734    8.8104 H       1  UNL1        0.0000
     47 H           0.7544    7.5016    4.6939 H       1  UNL1        0.0000
     48 H           0.1979    6.4369    5.9638 H       1  UNL1        0.0000
     49 H           1.7227    6.0788    5.1069 H       1  UNL1        0.0000
     50 H           7.4745    7.4582    8.4527 H       1  UNL1        0.0000
     51 H           7.5897    7.9810   10.8449 H       1  UNL1        0.0000
     52 H           6.0737    6.8598   12.4373 H       1  UNL1        0.0000
     53 H           4.4474    5.1963   11.6101 H       1  UNL1        0.0000
     54 H           4.3426    4.6675    9.2007 H       1  UNL1        0.0000
     55 H           6.0096    4.6548    7.0380 H       1  UNL1        0.0000
     56 H           6.4134    6.3209    6.5847 H       1  UNL1        0.0000
@<TRIPOS>BOND
     1    25     5    1
     2    29     7    1
     3    31     7    1
     4     7    30    1
     5     7     4    1
     6    24     5    1
     7    27     6    1
     8     5    23    1
     9     5     4    1
    10     4     6    1
    11     4     2    1
    12     6    26    1
    13     6    28    1
    14    37    10    1
    15    36    10    1
    16    47    15    1
    17    40    11    1
    18    10    35    1
    19    10     8    1
    20    49    15    1
    21     2     1    1
    22    39    11    1
    23    15    48    1
    24    15    12    1
    25    11     8    1
    26    11    38    1
    27    43    13    1
    28     8     3    1
    29     8     9    1
    30     3     1    1
    31     3    12    1
    32    56    22    1
    33    13    12    1
    34    13    42    1
    35    13    41    1
    36     1    22    1
    37    12    14    1
    38    55    22    1
    39    22    16    1
    40    33     9    1
    41     9    32    1
    42     9    34    1
    43    50    17    1
    44    14    46    1
    45    14    45    1
    46    14    44    1
    47    16    17   ar
    48    16    21   ar
    49    17    18   ar
    50    54    21    1
    51    21    20   ar
    52    18    51    1
    53    18    19   ar
    54    20    19   ar
    55    20    53    1
    56    19    52    1
