@<TRIPOS>MOLECULE
2
 43 43 0 0 0
SMALL
GASTEIGER

@<TRIPOS>ATOM
      1 SI          6.7361   -0.2309   -2.0099 Si      1  UNL1        0.0000
      2 N           5.0543    0.0030   -1.6634 N.pl3   1  UNL1        0.0000
      3 C           4.0578    0.1132   -2.6355 C.ar    1  UNL1        0.0000
      4 C           3.6907    1.3739   -3.1420 C.ar    1  UNL1        0.0000
      5 C           2.6715    1.4604   -4.0753 C.ar    1  UNL1        0.0000
      6 H           2.3799    2.4230   -4.4655 H       1  UNL1        0.0000
      7 C           2.0102    0.3284   -4.5146 C.ar    1  UNL1        0.0000
      8 H           1.2229    0.4112   -5.2494 H       1  UNL1        0.0000
      9 C           2.3415   -0.9055   -3.9877 C.ar    1  UNL1        0.0000
     10 H           1.7946   -1.7787   -4.3086 H       1  UNL1        0.0000
     11 C           3.3549   -1.0328   -3.0519 C.ar    1  UNL1        0.0000
     12 C           3.6462   -2.3615   -2.3950 C.3     1  UNL1        0.0000
     13 H           4.6658   -2.3216   -1.9999 H       1  UNL1        0.0000
     14 C           3.5499   -3.5475   -3.3533 C.3     1  UNL1        0.0000
     15 H           4.1243   -3.3568   -4.2567 H       1  UNL1        0.0000
     16 H           3.9461   -4.4417   -2.8762 H       1  UNL1        0.0000
     17 H           2.5189   -3.7485   -3.6336 H       1  UNL1        0.0000
     18 C           2.6911   -2.5426   -1.2086 C.3     1  UNL1        0.0000
     19 H           1.6582   -2.4540   -1.5380 H       1  UNL1        0.0000
     20 H           2.8290   -3.5218   -0.7561 H       1  UNL1        0.0000
     21 H           2.8813   -1.7731   -0.4526 H       1  UNL1        0.0000
     22 C           4.3495    2.6090   -2.5757 C.3     1  UNL1        0.0000
     23 H           5.3597    2.3330   -2.2690 H       1  UNL1        0.0000
     24 C           3.5855    3.0400   -1.3184 C.3     1  UNL1        0.0000
     25 H           3.6410    2.2505   -0.5608 H       1  UNL1        0.0000
     26 H           4.0124    3.9527   -0.9086 H       1  UNL1        0.0000
     27 H           2.5395    3.2213   -1.5557 H       1  UNL1        0.0000
     28 C           4.4483    3.7650   -3.5694 C.3     1  UNL1        0.0000
     29 H           3.4742    4.2093   -3.7594 H       1  UNL1        0.0000
     30 H           5.0964    4.5417   -3.1682 H       1  UNL1        0.0000
     31 H           4.8658    3.4239   -4.5140 H       1  UNL1        0.0000
     32 C           7.6748    1.3018   -2.6786 C.3     1  UNL1        0.0000
     33 H           7.6594    2.1319   -1.9785 H       1  UNL1        0.0000
     34 H           8.7161    1.0481   -2.8543 H       1  UNL1        0.0000
     35 H           7.2623    1.6497   -3.6208 H       1  UNL1        0.0000
     36 C           7.0338   -1.6118   -3.3018 C.3     1  UNL1        0.0000
     37 H           6.3591   -1.4961   -4.1447 H       1  UNL1        0.0000
     38 H           8.0483   -1.5720   -3.6850 H       1  UNL1        0.0000
     39 H           6.8782   -2.6042   -2.8909 H       1  UNL1        0.0000
     40 C           7.4601   -0.6756   -0.2981 C.3     1  UNL1        0.0000
     41 H           7.7227   -1.7251   -0.2369 H       1  UNL1        0.0000
     42 H           8.3606   -0.1072   -0.0978 H       1  UNL1        0.0000
     43 H           6.7535   -0.4637    0.5029 H       1  UNL1        0.0000
@<TRIPOS>BOND
     1     8     7    1
     2     7     5   ar
     3     7     9   ar
     4    31    28    1
     5     6     5    1
     6    10     9    1
     7    15    14    1
     8    37    36    1
     9     5     4   ar
    10     9    11   ar
    11    29    28    1
    12    38    36    1
    13    17    14    1
    14    35    32    1
    15    28    30    1
    16    28    22    1
    17    14    16    1
    18    14    12    1
    19    36    39    1
    20    36     1    1
    21     4     3   ar
    22     4    22    1
    23    11     3   ar
    24    11    12    1
    25    34    32    1
    26    32     1    1
    27    32    33    1
    28     3     2    1
    29    22    23    1
    30    22    24    1
    31    12    13    1
    32    12    18    1
    33     1     2    1
    34     1    40    1
    35    27    24    1
    36    19    18    1
    37    24    26    1
    38    24    25    1
    39    18    20    1
    40    18    21    1
    41    40    41    1
    42    40    42    1
    43    40    43    1
