@<TRIPOS>MOLECULE
2
 43 43 0 0 0
SMALL
GASTEIGER

@<TRIPOS>ATOM
      1 SI          2.0739    0.2308    2.0096 Si      1  UNL1        0.0000
      2 N           3.7558   -0.0032    1.6634 N.pl3   1  UNL1        0.0000
      3 C           4.7522   -0.1134    2.6356 C.ar    1  UNL1        0.0000
      4 C           5.1192   -1.3740    3.1422 C.ar    1  UNL1        0.0000
      5 C           6.1383   -1.4605    4.0757 C.ar    1  UNL1        0.0000
      6 H           6.4299   -2.4231    4.4659 H       1  UNL1        0.0000
      7 C           6.7996   -0.3284    4.5149 C.ar    1  UNL1        0.0000
      8 H           7.5868   -0.4111    5.2499 H       1  UNL1        0.0000
      9 C           6.4684    0.9054    3.9878 C.ar    1  UNL1        0.0000
     10 H           7.0152    1.7786    4.3088 H       1  UNL1        0.0000
     11 C           5.4551    1.0326    3.0519 C.ar    1  UNL1        0.0000
     12 C           5.1640    2.3613    2.3948 C.3     1  UNL1        0.0000
     13 H           4.1444    2.3215    1.9995 H       1  UNL1        0.0000
     14 C           5.2604    3.5476    3.3529 C.3     1  UNL1        0.0000
     15 H           4.6858    3.3571    4.2562 H       1  UNL1        0.0000
     16 H           4.8644    4.4418    2.8756 H       1  UNL1        0.0000
     17 H           6.2914    3.7483    3.6332 H       1  UNL1        0.0000
     18 C           6.1194    2.5421    1.2086 C.3     1  UNL1        0.0000
     19 H           7.1522    2.4536    1.5382 H       1  UNL1        0.0000
     20 H           5.9816    3.5213    0.7558 H       1  UNL1        0.0000
     21 H           5.9292    1.7725    0.4526 H       1  UNL1        0.0000
     22 C           4.4607   -2.6093    2.5759 C.3     1  UNL1        0.0000
     23 H           3.4505   -2.3333    2.2692 H       1  UNL1        0.0000
     24 C           5.2247   -3.0401    1.3187 C.3     1  UNL1        0.0000
     25 H           5.1694   -2.2508    0.5609 H       1  UNL1        0.0000
     26 H           4.7979   -3.9529    0.9089 H       1  UNL1        0.0000
     27 H           6.2706   -3.2213    1.5562 H       1  UNL1        0.0000
     28 C           4.3617   -3.7651    3.5698 C.3     1  UNL1        0.0000
     29 H           5.3358   -4.2093    3.7597 H       1  UNL1        0.0000
     30 H           3.7136   -4.5418    3.1686 H       1  UNL1        0.0000
     31 H           3.9442   -3.4240    4.5145 H       1  UNL1        0.0000
     32 C           1.1350   -1.3012    2.6795 C.3     1  UNL1        0.0000
     33 H           1.1500   -2.1316    1.9797 H       1  UNL1        0.0000
     34 H           0.0938   -1.0473    2.8552 H       1  UNL1        0.0000
     35 H           1.5475   -1.6489    3.6217 H       1  UNL1        0.0000
     36 C           1.7762    1.6127    3.3005 C.3     1  UNL1        0.0000
     37 H           2.4507    1.4977    4.1437 H       1  UNL1        0.0000
     38 H           0.7616    1.5737    3.6836 H       1  UNL1        0.0000
     39 H           1.9321    2.6046    2.8887 H       1  UNL1        0.0000
     40 C           1.3499    0.6752    0.2976 C.3     1  UNL1        0.0000
     41 H           1.0882    1.7248    0.2366 H       1  UNL1        0.0000
     42 H           0.4496    0.1067    0.0978 H       1  UNL1        0.0000
     43 H           2.0572    0.4626   -0.5028 H       1  UNL1        0.0000
@<TRIPOS>BOND
     1    43    40    1
     2    42    40    1
     3    41    40    1
     4    40     1    1
     5    21    18    1
     6    25    24    1
     7    20    18    1
     8    26    24    1
     9    18    19    1
    10    18    12    1
    11    24    27    1
    12    24    22    1
    13     2     1    1
    14     2     3    1
    15    33    32    1
    16    13    12    1
    17     1    32    1
    18     1    36    1
    19    23    22    1
    20    12    11    1
    21    12    14    1
    22    22     4    1
    23    22    28    1
    24     3    11   ar
    25     3     4   ar
    26    32    34    1
    27    32    35    1
    28    16    14    1
    29    39    36    1
    30    11     9   ar
    31     4     5   ar
    32    30    28    1
    33    36    38    1
    34    36    37    1
    35    14    17    1
    36    14    15    1
    37    28    29    1
    38    28    31    1
    39     9    10    1
    40     9     7   ar
    41     5     6    1
    42     5     7   ar
    43     7     8    1
