@<TRIPOS>MOLECULE
3
 27 26 0 0 0
SMALL
GASTEIGER

@<TRIPOS>ATOM
      1 SI          9.2884   10.5244    0.3694 Si      1  UNL1        0.0000
      2 SI         11.6089    8.7465    1.0251 Si      1  UNL1        0.0000
      3 N          10.1338    9.5129    1.4705 N.3     1  UNL1        0.0000
      4 C           8.3004    9.5954   -0.9918 C.3     1  UNL1        0.0000
      5 H           8.9606    9.3168   -1.8064 H       1  UNL1        0.0000
      6 H           7.5133   10.2157   -1.4097 H       1  UNL1        0.0000
      7 H           7.8464    8.6812   -0.6261 H       1  UNL1        0.0000
      8 C           8.0582   11.5737    1.3990 C.3     1  UNL1        0.0000
      9 H           7.5309   10.9714    2.1397 H       1  UNL1        0.0000
     10 H           7.3131   12.0354    0.7595 H       1  UNL1        0.0000
     11 H           8.5646   12.3730    1.9288 H       1  UNL1        0.0000
     12 C          10.3645   11.7695   -0.6061 C.3     1  UNL1        0.0000
     13 H          11.0220   12.3362    0.0431 H       1  UNL1        0.0000
     14 H           9.7501   12.4769   -1.1541 H       1  UNL1        0.0000
     15 H          10.9860   11.2491   -1.3263 H       1  UNL1        0.0000
     16 C          11.5776    7.6956   -0.5755 C.3     1  UNL1        0.0000
     17 H          10.9019    6.8498   -0.5054 H       1  UNL1        0.0000
     18 H          12.5635    7.3073   -0.8107 H       1  UNL1        0.0000
     19 H          11.2555    8.3024   -1.4148 H       1  UNL1        0.0000
     20 C          12.0596    7.5738    2.4759 C.3     1  UNL1        0.0000
     21 H          12.0306    8.0950    3.4357 H       1  UNL1        0.0000
     22 H          13.0612    7.1708    2.3537 H       1  UNL1        0.0000
     23 H          11.3754    6.7303    2.5280 H       1  UNL1        0.0000
     24 C          13.0943    9.9380    0.7681 C.3     1  UNL1        0.0000
     25 H          13.0517   10.3818   -0.2199 H       1  UNL1        0.0000
     26 H          14.0420    9.4138    0.8478 H       1  UNL1        0.0000
     27 H          13.1036   10.7509    1.4845 H       1  UNL1        0.0000
@<TRIPOS>BOND
     1     5     4    1
     2    19    16    1
     3     6     4    1
     4    15    12    1
     5    14    12    1
     6     4     7    1
     7     4     1    1
     8    18    16    1
     9    12    13    1
    10    12     1    1
    11    16    17    1
    12    16     2    1
    13    25    24    1
    14     1     8    1
    15     1     3    1
    16    10     8    1
    17    24    26    1
    18    24     2    1
    19    24    27    1
    20     2     3    1
    21     2    20    1
    22     8    11    1
    23     8     9    1
    24    22    20    1
    25    20    23    1
    26    20    21    1
