@<TRIPOS>MOLECULE
3
 27 26 0 0 0
SMALL
GASTEIGER

@<TRIPOS>ATOM
      1 SI          8.4586    5.4447    2.7985 Si      1  UNL1        0.0000
      2 SI          9.8168    5.7688    5.4352 Si      1  UNL1        0.0000
      3 N           9.0946    6.4553    4.0347 N.3     1  UNL1        0.0000
      4 C           8.8607    4.2907    6.1835 C.3     1  UNL1        0.0000
      5 H           7.8117    4.5245    6.3276 H       1  UNL1        0.0000
      6 H           9.2693    4.0002    7.1460 H       1  UNL1        0.0000
      7 H           8.9176    3.4284    5.5286 H       1  UNL1        0.0000
      8 C           9.8780    7.1088    6.8023 C.3     1  UNL1        0.0000
      9 H          10.0253    8.1047    6.3835 H       1  UNL1        0.0000
     10 H          10.6917    6.9136    7.4925 H       1  UNL1        0.0000
     11 H           8.9634    7.1315    7.3839 H       1  UNL1        0.0000
     12 C          11.6098    5.1298    5.1910 C.3     1  UNL1        0.0000
     13 H          11.6419    4.3690    4.4193 H       1  UNL1        0.0000
     14 H          11.9921    4.6856    6.1051 H       1  UNL1        0.0000
     15 H          12.2955    5.9173    4.8981 H       1  UNL1        0.0000
     16 C           6.7774    4.6376    3.2603 C.3     1  UNL1        0.0000
     17 H           6.9323    3.8012    3.9317 H       1  UNL1        0.0000
     18 H           6.2538    4.2621    2.3866 H       1  UNL1        0.0000
     19 H           6.1238    5.3412    3.7646 H       1  UNL1        0.0000
     20 C           8.1533    6.5523    1.2599 C.3     1  UNL1        0.0000
     21 H           7.5573    7.4355    1.5042 H       1  UNL1        0.0000
     22 H           7.6253    6.0016    0.4857 H       1  UNL1        0.0000
     23 H           9.0924    6.8910    0.8322 H       1  UNL1        0.0000
     24 C           9.5824    4.0113    2.2161 C.3     1  UNL1        0.0000
     25 H          10.5453    4.3726    1.8704 H       1  UNL1        0.0000
     26 H           9.1302    3.4509    1.4041 H       1  UNL1        0.0000
     27 H           9.7647    3.3197    3.0311 H       1  UNL1        0.0000
@<TRIPOS>BOND
     1    22    20    1
     2    23    20    1
     3    20    21    1
     4    20     1    1
     5    26    24    1
     6    25    24    1
     7    24     1    1
     8    24    27    1
     9    18    16    1
    10     1    16    1
    11     1     3    1
    12    16    19    1
    13    16    17    1
    14     3     2    1
    15    13    12    1
    16    15    12    1
    17    12     2    1
    18    12    14    1
    19     2     4    1
    20     2     8    1
    21     7     4    1
    22     4     5    1
    23     4     6    1
    24     9     8    1
    25     8    11    1
    26     8    10    1
