@<TRIPOS>MOLECULE
1
 31 31 0 0 0
SMALL
GASTEIGER

@<TRIPOS>ATOM
      1 N           8.8877   13.6629   17.3424 N.pl3   1  UNL1       -0.2449
      2 C           7.6204   14.2555   17.0955 C.ar    1  UNL1        0.0488
      3 C           6.5985   14.1441   18.0427 C.ar    1  UNL1       -0.0362
      4 H           6.7969   13.6300   18.9735 H       1  UNL1        0.0639
      5 C           5.3372   14.6672   17.8006 C.ar    1  UNL1       -0.0484
      6 C           5.0963   15.3065   16.5877 C.ar    1  UNL1       -0.0558
      7 H           4.1122   15.7065   16.3914 H       1  UNL1        0.0623
      8 C           6.0909   15.4269   15.6296 C.ar    1  UNL1       -0.0484
      9 C           7.3516   14.8996   15.8917 C.ar    1  UNL1       -0.0362
     10 H           8.1183   14.9650   15.1350 H       1  UNL1        0.0639
     11 C           8.9478   12.2206   17.0318 C.3     1  UNL1        0.0453
     12 C          10.4076   11.8249   16.7804 C.3     1  UNL1       -0.0424
     13 H          10.7670   12.2631   15.8517 H       1  UNL1        0.0251
     14 H          10.4837   10.7441   16.6888 H       1  UNL1        0.0251
     15 H          11.0364   12.1533   17.6077 H       1  UNL1        0.0251
     16 C           8.4116   11.4223   18.2310 C.3     1  UNL1       -0.0424
     17 H           7.3342   11.5366   18.3212 H       1  UNL1        0.0251
     18 H           8.8952   11.7720   19.1441 H       1  UNL1        0.0251
     19 H           8.6230   10.3642   18.1014 H       1  UNL1        0.0251
     20 C           8.1317   11.8745   15.7789 C.3     1  UNL1       -0.0424
     21 H           8.4666   12.4625   14.9271 H       1  UNL1        0.0251
     22 H           7.0709   12.0587   15.9315 H       1  UNL1        0.0251
     23 H           8.2651   10.8215   15.5454 H       1  UNL1        0.0251
     24 C           4.2420   14.5384   18.8137 C.3     1  UNL1       -0.0396
     25 H           3.7382   15.4923   18.9585 H       1  UNL1        0.0278
     26 H           4.6252   14.1932   19.7708 H       1  UNL1        0.0278
     27 H           3.4968   13.8234   18.4663 H       1  UNL1        0.0278
     28 C           5.8209   16.0802   14.3098 C.3     1  UNL1       -0.0396
     29 H           4.8919   16.6440   14.3317 H       1  UNL1        0.0278
     30 H           5.7354   15.3199   13.5338 H       1  UNL1        0.0278
     31 H           6.6384   16.7432   14.0364 H       1  UNL1        0.0278
@<TRIPOS>BOND
     1    30    28    1
     2    31    28    1
     3    28    29    1
     4    28     8    1
     5    21    20    1
     6    10     9    1
     7    23    20    1
     8     8     9   ar
     9     8     6   ar
    10    20    22    1
    11    20    11    1
    12    13    12    1
    13     9     2   ar
    14     7     6    1
    15     6     5   ar
    16    14    12    1
    17    12    11    1
    18    12    15    1
    19    11     1    1
    20    11    16    1
    21     2     1    1
    22     2     3   ar
    23     5     3   ar
    24     5    24    1
    25     3     4    1
    26    19    16    1
    27    16    17    1
    28    16    18    1
    29    27    24    1
    30    24    25    1
    31    24    26    1
