@<TRIPOS>MOLECULE
1
 31 31 0 0 0
SMALL
GASTEIGER

@<TRIPOS>ATOM
      1 N           9.0634   15.9490   19.4527 N.pl3   1  UNL1       -0.2449
      2 C           8.8166   17.2163   18.8601 C.ar    1  UNL1        0.0488
      3 C           9.7638   18.2382   18.9715 C.ar    1  UNL1       -0.0362
      4 H          10.6946   18.0398   19.4856 H       1  UNL1        0.0639
      5 C           9.5217   19.4996   18.4484 C.ar    1  UNL1       -0.0484
      6 C           8.3088   19.7405   17.8090 C.ar    1  UNL1       -0.0558
      7 H           8.1125   20.7245   17.4090 H       1  UNL1        0.0623
      8 C           7.3507   18.7458   17.6886 C.ar    1  UNL1       -0.0484
      9 C           7.6128   17.4851   18.2159 C.ar    1  UNL1       -0.0362
     10 H           6.8562   16.7184   18.1506 H       1  UNL1        0.0639
     11 C           8.7529   15.8889   20.8950 C.3     1  UNL1        0.0453
     12 C           8.5015   14.4292   21.2907 C.3     1  UNL1       -0.0424
     13 H           7.5727   14.0698   20.8525 H       1  UNL1        0.0251
     14 H           8.4099   14.3531   22.3715 H       1  UNL1        0.0251
     15 H           9.3287   13.8003   20.9623 H       1  UNL1        0.0251
     16 C           9.9521   16.4251   21.6933 C.3     1  UNL1       -0.0424
     17 H          10.0424   17.5025   21.5789 H       1  UNL1        0.0251
     18 H          10.8652   15.9414   21.3436 H       1  UNL1        0.0251
     19 H           9.8225   16.2137   22.7514 H       1  UNL1        0.0251
     20 C           7.5000   16.7051   21.2411 C.3     1  UNL1       -0.0424
     21 H           6.6482   16.3702   20.6531 H       1  UNL1        0.0251
     22 H           7.6526   17.7659   21.0569 H       1  UNL1        0.0251
     23 H           7.2666   16.5717   22.2940 H       1  UNL1        0.0251
     24 C          10.5348   20.5947   18.5773 C.3     1  UNL1       -0.0396
     25 H          10.6780   21.1001   17.6242 H       1  UNL1        0.0278
     26 H          11.4925   20.2112   18.9204 H       1  UNL1        0.0278
     27 H          10.1885   21.3386   19.2941 H       1  UNL1        0.0278
     28 C           6.0309   19.0158   17.0353 C.3     1  UNL1       -0.0396
     29 H           6.0528   19.9449   16.4717 H       1  UNL1        0.0278
     30 H           5.2549   19.1012   17.7956 H       1  UNL1        0.0278
     31 H           5.7576   18.1984   16.3723 H       1  UNL1        0.0278
@<TRIPOS>BOND
     1    31    28    1
     2    29    28    1
     3    28     8    1
     4    28    30    1
     5     7     6    1
     6    25    24    1
     7     8     6   ar
     8     8     9   ar
     9     6     5   ar
    10    10     9    1
    11     9     2   ar
    12     5    24    1
    13     5     3   ar
    14    24    26    1
    15    24    27    1
    16     2     3   ar
    17     2     1    1
    18     3     4    1
    19     1    11    1
    20    21    20    1
    21    13    12    1
    22    11    20    1
    23    11    12    1
    24    11    16    1
    25    15    12    1
    26    22    20    1
    27    20    23    1
    28    12    14    1
    29    18    16    1
    30    17    16    1
    31    16    19    1
