@<TRIPOS>MOLECULE
1
 31 31 0 0 0
SMALL
GASTEIGER

@<TRIPOS>ATOM
      1 N          11.1738   15.7732   17.1666 N.pl3   1  UNL1       -0.2449
      2 C          10.5812   16.0201   15.8993 C.ar    1  UNL1        0.0488
      3 C          10.6926   15.0729   14.8774 C.ar    1  UNL1       -0.0362
      4 H          11.2067   14.1421   15.0758 H       1  UNL1        0.0639
      5 C          10.1695   15.3150   13.6160 C.ar    1  UNL1       -0.0484
      6 C           9.5302   16.5279   13.3751 C.ar    1  UNL1       -0.0558
      7 H           9.1302   16.7242   12.3911 H       1  UNL1        0.0623
      8 C           9.4098   17.4860   14.3698 C.ar    1  UNL1       -0.0484
      9 C           9.9371   17.2239   15.6305 C.ar    1  UNL1       -0.0362
     10 H           9.8717   17.9805   16.3972 H       1  UNL1        0.0639
     11 C          12.6161   16.0838   17.2267 C.3     1  UNL1        0.0453
     12 C          13.0118   16.3352   18.6864 C.3     1  UNL1       -0.0424
     13 H          12.5736   17.2640   19.0458 H       1  UNL1        0.0251
     14 H          14.0926   16.4268   18.7625 H       1  UNL1        0.0251
     15 H          12.6833   15.5081   19.3153 H       1  UNL1        0.0251
     16 C          13.4144   14.8845   16.6905 C.3     1  UNL1       -0.0424
     17 H          13.3001   14.7942   15.6131 H       1  UNL1        0.0251
     18 H          13.0647   13.9714   17.1743 H       1  UNL1        0.0251
     19 H          14.4725   15.0141   16.9020 H       1  UNL1        0.0251
     20 C          12.9622   17.3366   16.4104 C.3     1  UNL1       -0.0424
     21 H          12.3743   18.1884   16.7452 H       1  UNL1        0.0251
     22 H          12.7781   17.1839   15.3497 H       1  UNL1        0.0251
     23 H          14.0152   17.5700   16.5439 H       1  UNL1        0.0251
     24 C          10.2983   14.3018   12.5209 C.3     1  UNL1       -0.0396
     25 H           9.3443   14.1568   12.0174 H       1  UNL1        0.0278
     26 H          10.6439   13.3448   12.9040 H       1  UNL1        0.0278
     27 H          11.0130   14.6494   11.7755 H       1  UNL1        0.0278
     28 C           8.7565   18.8057   14.0998 C.3     1  UNL1       -0.0396
     29 H           8.1928   18.7839   13.1707 H       1  UNL1        0.0278
     30 H           9.5168   19.5818   14.0144 H       1  UNL1        0.0278
     31 H           8.0934   19.0790   14.9172 H       1  UNL1        0.0278
@<TRIPOS>BOND
     1    27    24    1
     2    25    24    1
     3     7     6    1
     4    24    26    1
     5    24     5    1
     6    29    28    1
     7     6     5   ar
     8     6     8   ar
     9     5     3   ar
    10    30    28    1
    11    28     8    1
    12    28    31    1
    13     8     9   ar
    14     3     4    1
    15     3     2   ar
    16    22    20    1
    17    17    16    1
    18     9     2   ar
    19     9    10    1
    20     2     1    1
    21    20    23    1
    22    20    21    1
    23    20    11    1
    24    16    19    1
    25    16    18    1
    26    16    11    1
    27     1    11    1
    28    11    12    1
    29    12    14    1
    30    12    13    1
    31    12    15    1
