@<TRIPOS>MOLECULE
1
 9 8 0 0 0
SMALL
GASTEIGER

@<TRIPOS>ATOM
      1 N          -1.3830    9.5797    4.2234 N.3     1  UNL1       -0.2469
      2 C          -2.7776    9.3663    3.9238 C.3     1  UNL1        0.0021
      3 H          -3.1540   10.1827    3.2998 H       1  UNL1        0.0405
      4 H          -3.3855    9.3107    4.8466 H       1  UNL1        0.0405
      5 H          -2.9215    8.4123    3.3859 H       1  UNL1        0.0405
      6 C          -0.8729    8.5301    5.0746 C.3     1  UNL1        0.0021
      7 H           0.1915    8.6938    5.2719 H       1  UNL1        0.0405
      8 H          -0.9983    7.5404    4.6021 H       1  UNL1        0.0405
      9 H          -1.4072    8.5096    6.0427 H       1  UNL1        0.0405
@<TRIPOS>BOND
     1     3     2    1
     2     5     2    1
     3     2     1    1
     4     2     4    1
     5     1     6    1
     6     8     6    1
     7     6     7    1
     8     6     9    1
