@<TRIPOS>MOLECULE
1
 9 8 0 0 0
SMALL
GASTEIGER

@<TRIPOS>ATOM
      1 N          -1.6511   12.6170    4.0707 N.3     1  UNL1       -0.2469
      2 C          -0.9453   13.8682    3.9411 C.3     1  UNL1        0.0021
      3 H          -1.6141   14.6637    3.5701 H       1  UNL1        0.0405
      4 H          -0.1193   13.7527    3.2295 H       1  UNL1        0.0405
      5 H          -0.5390   14.2055    4.9169 H       1  UNL1        0.0405
      6 C          -2.7646   12.7565    4.9776 C.3     1  UNL1        0.0021
      7 H          -3.2526   11.7908    5.1279 H       1  UNL1        0.0405
      8 H          -3.5066   13.4690    4.5799 H       1  UNL1        0.0405
      9 H          -2.4313   13.1327    5.9626 H       1  UNL1        0.0405
@<TRIPOS>BOND
     1     4     2    1
     2     3     2    1
     3     2     1    1
     4     2     5    1
     5     1     6    1
     6     8     6    1
     7     6     7    1
     8     6     9    1
