@<TRIPOS>MOLECULE
3
 27 26 0 0 0
SMALL
GASTEIGER

@<TRIPOS>ATOM
      1 SI         12.1795    6.1207    4.4471 Si      1  UNL1        0.0000
      2 SI         12.3730    7.3721    7.2449 Si      1  UNL1        0.0000
      3 N          12.8012    7.2911    5.5679 N.3     1  UNL1        0.0000
      4 C          10.6265    8.0963    7.5299 C.3     1  UNL1        0.0000
      5 H          10.4110    8.9022    6.8357 H       1  UNL1        0.0000
      6 H          10.5204    8.4853    8.5379 H       1  UNL1        0.0000
      7 H           9.8671    7.3343    7.3918 H       1  UNL1        0.0000
      8 C          12.4861    5.6724    8.1037 C.3     1  UNL1        0.0000
      9 H          11.7746    4.9729    7.6791 H       1  UNL1        0.0000
     10 H          12.2715    5.7591    9.1640 H       1  UNL1        0.0000
     11 H          13.4757    5.2394    8.0001 H       1  UNL1        0.0000
     12 C          13.6995    8.5360    7.9823 C.3     1  UNL1        0.0000
     13 H          14.4068    8.8095    7.1978 H       1  UNL1        0.0000
     14 H          14.2571    8.0559    8.7789 H       1  UNL1        0.0000
     15 H          13.2728    9.4460    8.3891 H       1  UNL1        0.0000
     16 C          13.2116    4.5081    4.4465 C.3     1  UNL1        0.0000
     17 H          14.2162    4.6687    4.0704 H       1  UNL1        0.0000
     18 H          12.7429    3.7550    3.8207 H       1  UNL1        0.0000
     19 H          13.2966    4.0973    5.4469 H       1  UNL1        0.0000
     20 C          12.3058    6.9762    2.7480 C.3     1  UNL1        0.0000
     21 H          11.3871    7.4975    2.5027 H       1  UNL1        0.0000
     22 H          12.5134    6.2729    1.9495 H       1  UNL1        0.0000
     23 H          13.1026    7.7173    2.7588 H       1  UNL1        0.0000
     24 C          10.3594    5.6629    4.7795 C.3     1  UNL1        0.0000
     25 H          10.2501    5.1426    5.7246 H       1  UNL1        0.0000
     26 H           9.9769    5.0130    3.9992 H       1  UNL1        0.0000
     27 H           9.7308    6.5463    4.8126 H       1  UNL1        0.0000
@<TRIPOS>BOND
     1    22    20    1
     2    21    20    1
     3    20    23    1
     4    20     1    1
     5    18    16    1
     6    26    24    1
     7    17    16    1
     8    16     1    1
     9    16    19    1
    10     1    24    1
    11     1     3    1
    12    24    27    1
    13    24    25    1
    14     3     2    1
    15     5     4    1
    16    13    12    1
    17     2     4    1
    18     2    12    1
    19     2     8    1
    20     7     4    1
    21     4     6    1
    22     9     8    1
    23    12    15    1
    24    12    14    1
    25    11     8    1
    26     8    10    1
