@<TRIPOS>MOLECULE
3
 27 26 0 0 0
SMALL
GASTEIGER

@<TRIPOS>ATOM
      1 SI         -3.3200   12.0872   22.5299 Si      1  UNL1        0.0000
      2 SI         -5.9503   13.0045   21.2672 Si      1  UNL1        0.0000
      3 N          -4.2442   13.1872   21.5558 N.3     1  UNL1        0.0000
      4 C          -3.7379   10.2623   22.1511 C.3     1  UNL1        0.0000
      5 H          -4.7993   10.0704   22.2634 H       1  UNL1        0.0000
      6 H          -3.2107    9.6013   22.8321 H       1  UNL1        0.0000
      7 H          -3.4605    9.9818   21.1412 H       1  UNL1        0.0000
      8 C          -1.4426   12.3186   22.2679 C.3     1  UNL1        0.0000
      9 H          -0.9143   11.4472   22.6421 H       1  UNL1        0.0000
     10 H          -1.0661   13.1797   22.8061 H       1  UNL1        0.0000
     11 H          -1.1762   12.4382   21.2249 H       1  UNL1        0.0000
     12 C          -3.6791   12.4015   24.3825 C.3     1  UNL1        0.0000
     13 H          -3.6350   13.4568   24.6313 H       1  UNL1        0.0000
     14 H          -2.9557   11.8862   25.0064 H       1  UNL1        0.0000
     15 H          -4.6643   12.0411   24.6568 H       1  UNL1        0.0000
     16 C          -6.2620   11.9770   19.6850 C.3     1  UNL1        0.0000
     17 H          -5.7291   12.3999   18.8387 H       1  UNL1        0.0000
     18 H          -7.3172   11.9499   19.4331 H       1  UNL1        0.0000
     19 H          -5.9291   10.9519   19.8078 H       1  UNL1        0.0000
     20 C          -6.9678   12.2782   22.7080 C.3     1  UNL1        0.0000
     21 H          -6.6605   11.2654   22.9405 H       1  UNL1        0.0000
     22 H          -8.0218   12.2510   22.4517 H       1  UNL1        0.0000
     23 H          -6.8621   12.8712   23.6096 H       1  UNL1        0.0000
     24 C          -6.5400   14.7935   20.9632 C.3     1  UNL1        0.0000
     25 H          -6.3300   15.4201   21.8243 H       1  UNL1        0.0000
     26 H          -7.6045   14.8452   20.7670 H       1  UNL1        0.0000
     27 H          -6.0200   15.2103   20.0991 H       1  UNL1        0.0000
@<TRIPOS>BOND
     1    17    16    1
     2    18    16    1
     3    16    19    1
     4    16     2    1
     5    27    24    1
     6    26    24    1
     7    24     2    1
     8    24    25    1
     9     7     4    1
    10    11     8    1
    11     2     3    1
    12     2    20    1
    13     3     1    1
    14     4     5    1
    15     4     1    1
    16     4     6    1
    17     8     1    1
    18     8     9    1
    19     8    10    1
    20    22    20    1
    21     1    12    1
    22    20    21    1
    23    20    23    1
    24    12    13    1
    25    12    15    1
    26    12    14    1
