@<TRIPOS>MOLECULE
3
 27 26 0 0 0
SMALL
GASTEIGER

@<TRIPOS>ATOM
      1 SI         16.4333    6.3020   13.5704 Si      1  UNL1        0.0000
      2 SI         16.0142    8.3800   11.3011 Si      1  UNL1        0.0000
      3 N          15.6096    7.0862   12.3104 N.3     1  UNL1        0.0000
      4 C          17.7172    4.9943   12.9838 C.3     1  UNL1        0.0000
      5 H          17.2214    4.2524   12.3680 H       1  UNL1        0.0000
      6 H          18.2005    4.4786   13.8101 H       1  UNL1        0.0000
      7 H          18.4925    5.4581   12.3814 H       1  UNL1        0.0000
      8 C          15.1688    5.4171   14.7027 C.3     1  UNL1        0.0000
      9 H          15.5729    4.5110   15.1446 H       1  UNL1        0.0000
     10 H          14.3103    5.1441   14.0986 H       1  UNL1        0.0000
     11 H          14.8232    6.0548   15.5101 H       1  UNL1        0.0000
     12 C          17.4321    7.5162   14.6819 C.3     1  UNL1        0.0000
     13 H          18.2044    8.0087   14.1002 H       1  UNL1        0.0000
     14 H          17.9138    7.0123   15.5150 H       1  UNL1        0.0000
     15 H          16.7871    8.2887   15.0873 H       1  UNL1        0.0000
     16 C          15.9048   10.1099   12.1465 C.3     1  UNL1        0.0000
     17 H          14.9491   10.2303   12.6463 H       1  UNL1        0.0000
     18 H          16.0199   10.9294   11.4415 H       1  UNL1        0.0000
     19 H          16.6794   10.2116   12.9000 H       1  UNL1        0.0000
     20 C          17.7799    8.3399   10.5321 C.3     1  UNL1        0.0000
     21 H          18.5273    8.3789   11.3180 H       1  UNL1        0.0000
     22 H          17.9647    9.1717    9.8573 H       1  UNL1        0.0000
     23 H          17.9376    7.4196    9.9799 H       1  UNL1        0.0000
     24 C          14.7667    8.3820    9.8499 C.3     1  UNL1        0.0000
     25 H          14.6776    7.3700    9.4655 H       1  UNL1        0.0000
     26 H          15.0566    9.0298    9.0281 H       1  UNL1        0.0000
     27 H          13.7836    8.6939   10.1919 H       1  UNL1        0.0000
@<TRIPOS>BOND
     1    26    24    1
     2    25    24    1
     3    24    27    1
     4    24     2    1
     5    22    20    1
     6    23    20    1
     7    20     2    1
     8    20    21    1
     9     2    16    1
    10     2     3    1
    11    18    16    1
    12    16    17    1
    13    16    19    1
    14     3     1    1
    15     5     4    1
    16     7     4    1
    17     4     1    1
    18     4     6    1
    19     1    12    1
    20     1     8    1
    21    10     8    1
    22    13    12    1
    23    12    15    1
    24    12    14    1
    25     8     9    1
    26     8    11    1
