@<TRIPOS>MOLECULE
3
 27 26 0 0 0
SMALL
GASTEIGER

@<TRIPOS>ATOM
      1 SI         11.5311    8.4988   12.9433 Si      1  UNL1        0.0000
      2 SI         10.9236    7.1221   10.2345 Si      1  UNL1        0.0000
      3 N          11.8561    7.4369   11.6369 N.3     1  UNL1        0.0000
      4 C          12.8125    8.0982   14.2893 C.3     1  UNL1        0.0000
      5 H          12.5306    7.2095   14.8420 H       1  UNL1        0.0000
      6 H          12.9407    8.9075   15.0010 H       1  UNL1        0.0000
      7 H          13.7756    7.8985   13.8219 H       1  UNL1        0.0000
      8 C          11.7003   10.3469   12.4392 C.3     1  UNL1        0.0000
      9 H          11.5950   11.0103   13.2932 H       1  UNL1        0.0000
     10 H          10.9470   10.6263   11.7094 H       1  UNL1        0.0000
     11 H          12.6718   10.5321   11.9934 H       1  UNL1        0.0000
     12 C           9.7538    8.3409   13.6615 C.3     1  UNL1        0.0000
     13 H           9.0135    8.6546   12.9321 H       1  UNL1        0.0000
     14 H           9.6246    8.9547   14.5481 H       1  UNL1        0.0000
     15 H           9.5336    7.3140   13.9323 H       1  UNL1        0.0000
     16 C           9.3472    6.0897   10.6205 C.3     1  UNL1        0.0000
     17 H           9.6163    5.1612   11.1123 H       1  UNL1        0.0000
     18 H           8.7930    5.8425    9.7193 H       1  UNL1        0.0000
     19 H           8.6790    6.6303   11.2822 H       1  UNL1        0.0000
     20 C          10.2897    8.6963    9.3319 C.3     1  UNL1        0.0000
     21 H           9.5806    9.2330    9.9541 H       1  UNL1        0.0000
     22 H           9.7917    8.4532    8.3977 H       1  UNL1        0.0000
     23 H          11.1069    9.3732    9.1065 H       1  UNL1        0.0000
     24 C          12.0110    6.1102    9.0352 C.3     1  UNL1        0.0000
     25 H          12.7538    5.5611    9.6093 H       1  UNL1        0.0000
     26 H          12.5375    6.7485    8.3352 H       1  UNL1        0.0000
     27 H          11.4331    5.3933    8.4608 H       1  UNL1        0.0000
@<TRIPOS>BOND
     1    26    24    1
     2    22    20    1
     3    27    24    1
     4    24    25    1
     5    24     2    1
     6    23    20    1
     7    20    21    1
     8    20     2    1
     9    18    16    1
    10     2    16    1
    11     2     3    1
    12    16    17    1
    13    16    19    1
    14     3     1    1
    15    10     8    1
    16    11     8    1
    17     8     1    1
    18     8     9    1
    19    13    12    1
    20     1    12    1
    21     1     4    1
    22    12    15    1
    23    12    14    1
    24     7     4    1
    25     4     5    1
    26     4     6    1
