@<TRIPOS>MOLECULE
3
 27 26 0 0 0
SMALL
GASTEIGER

@<TRIPOS>ATOM
      1 SI          9.4649   15.3443   10.4676 Si      1  UNL1        0.0000
      2 SI          7.7646   13.4738   12.2195 Si      1  UNL1        0.0000
      3 N           8.0535   14.4990   10.8857 N.3     1  UNL1        0.0000
      4 C           9.2865   15.8882    8.6459 C.3     1  UNL1        0.0000
      5 H           9.0525   15.0214    8.0359 H       1  UNL1        0.0000
      6 H          10.1855   16.3467    8.2467 H       1  UNL1        0.0000
      7 H           8.4702   16.5979    8.5400 H       1  UNL1        0.0000
      8 C           5.9272   13.5222   12.7531 C.3     1  UNL1        0.0000
      9 H           5.6876   14.4237   13.3081 H       1  UNL1        0.0000
     10 H           5.6701   12.6698   13.3755 H       1  UNL1        0.0000
     11 H           5.2975   13.4907   11.8720 H       1  UNL1        0.0000
     12 C           8.2408   11.6435   11.8904 C.3     1  UNL1        0.0000
     13 H           7.6769   11.2724   11.0423 H       1  UNL1        0.0000
     14 H           8.0330   11.0025   12.7432 H       1  UNL1        0.0000
     15 H           9.2968   11.5534   11.6537 H       1  UNL1        0.0000
     16 C           8.7683   14.0081   13.7673 C.3     1  UNL1        0.0000
     17 H           9.8331   13.9404   13.5754 H       1  UNL1        0.0000
     18 H           8.5444   13.3790   14.6232 H       1  UNL1        0.0000
     19 H           8.5495   15.0342   14.0415 H       1  UNL1        0.0000
     20 C           9.7723   16.9274   11.5214 C.3     1  UNL1        0.0000
     21 H           8.8645   17.5155   11.6088 H       1  UNL1        0.0000
     22 H          10.5431   17.5631   11.0939 H       1  UNL1        0.0000
     23 H          10.0846   16.6602   12.5257 H       1  UNL1        0.0000
     24 C          11.1030   14.3454   10.5940 C.3     1  UNL1        0.0000
     25 H          11.2785   14.0377   11.6191 H       1  UNL1        0.0000
     26 H          11.9631   14.9248   10.2700 H       1  UNL1        0.0000
     27 H          11.0564   13.4470    9.9883 H       1  UNL1        0.0000
@<TRIPOS>BOND
     1     5     4    1
     2     6     4    1
     3     7     4    1
     4     4     1    1
     5    27    24    1
     6    26    24    1
     7     1    24    1
     8     1     3    1
     9     1    20    1
    10    24    25    1
    11     3     2    1
    12    13    12    1
    13    22    20    1
    14    20    21    1
    15    20    23    1
    16    15    12    1
    17    11     8    1
    18    12     2    1
    19    12    14    1
    20     2     8    1
    21     2    16    1
    22     8     9    1
    23     8    10    1
    24    17    16    1
    25    16    19    1
    26    16    18    1
