@<TRIPOS>MOLECULE
3
 27 26 0 0 0
SMALL
GASTEIGER

@<TRIPOS>ATOM
      1 SI          5.8701   16.6571    6.8641 Si      1  UNL1        0.0000
      2 SI          5.4754   17.7291    9.7551 Si      1  UNL1        0.0000
      3 N           5.9298   16.5714    8.5753 N.3     1  UNL1        0.0000
      4 C           5.4370   16.7764   11.3997 C.3     1  UNL1        0.0000
      5 H           4.6602   16.0190   11.3760 H       1  UNL1        0.0000
      6 H           5.2609   17.4119   12.2612 H       1  UNL1        0.0000
      7 H           6.3853   16.2609   11.5439 H       1  UNL1        0.0000
      8 C           6.7889   15.1317    6.1811 C.3     1  UNL1        0.0000
      9 H           7.8210   15.3548    5.9351 H       1  UNL1        0.0000
     10 H           6.3134   14.7344    5.2903 H       1  UNL1        0.0000
     11 H           6.7854   14.3484    6.9362 H       1  UNL1        0.0000
     12 C           3.7734   18.5624    9.4417 C.3     1  UNL1        0.0000
     13 H           3.7976   19.1539    8.5321 H       1  UNL1        0.0000
     14 H           3.4986   19.2233   10.2584 H       1  UNL1        0.0000
     15 H           2.9886   17.8221    9.3328 H       1  UNL1        0.0000
     16 C           4.0672   16.6140    6.2064 C.3     1  UNL1        0.0000
     17 H           3.5615   15.7197    6.5543 H       1  UNL1        0.0000
     18 H           4.0361   16.6151    5.1205 H       1  UNL1        0.0000
     19 H           3.5005   17.4704    6.5555 H       1  UNL1        0.0000
     20 C           6.6543   18.2580    6.1487 C.3     1  UNL1        0.0000
     21 H           6.0970   19.1318    6.4711 H       1  UNL1        0.0000
     22 H           6.6592   18.2508    5.0628 H       1  UNL1        0.0000
     23 H           7.6786   18.3793    6.4852 H       1  UNL1        0.0000
     24 C           6.7315   19.1783    9.8783 C.3     1  UNL1        0.0000
     25 H           7.7428   18.8018    9.9881 H       1  UNL1        0.0000
     26 H           6.5215   19.8226   10.7273 H       1  UNL1        0.0000
     27 H           6.7063   19.7924    8.9836 H       1  UNL1        0.0000
@<TRIPOS>BOND
     1    22    20    1
     2    18    16    1
     3    10     8    1
     4     9     8    1
     5    20    21    1
     6    20    23    1
     7    20     1    1
     8     8     1    1
     9     8    11    1
    10    16    17    1
    11    16    19    1
    12    16     1    1
    13     1     3    1
    14    13    12    1
    15     3     2    1
    16    27    24    1
    17    15    12    1
    18    12     2    1
    19    12    14    1
    20     2    24    1
    21     2     4    1
    22    24    25    1
    23    24    26    1
    24     5     4    1
    25     4     7    1
    26     4     6    1
