@<TRIPOS>MOLECULE
1
 11 11 0 0 0
SMALL
GASTEIGER

@<TRIPOS>ATOM
      1 N           5.5224    0.0004   -0.5695 N.pl3   1  UNL1       -0.2487
      2 C           6.2404    0.8864   -1.2535 C.3     1  UNL1        0.0840
      3 H           6.8055    1.5779   -0.6456 H       1  UNL1        0.0584
      4 C           6.2714    0.9271   -2.6370 C.2     1  UNL1       -0.0600
      5 H           6.8671    1.6669   -3.1486 H       1  UNL1        0.0592
      6 C           5.5238   -0.0013   -3.3478 C.2     1  UNL1       -0.0626
      7 H           5.5238   -0.0014   -4.4278 H       1  UNL1        0.0615
      8 C           4.8048   -0.8860   -1.2534 C.2     1  UNL1        0.0121
      9 H           4.2391   -1.5775   -0.6451 H       1  UNL1        0.0797
     10 C           4.7754   -0.9284   -2.6368 C.2     1  UNL1       -0.0466
     11 H           4.1798   -1.6685   -3.1482 H       1  UNL1        0.0630
@<TRIPOS>BOND
     1     7     6    1
     2     6     4    2
     3     6    10    1
     4     5     4    1
     5    11    10    1
     6     4     2    1
     7    10     8    2
     8     2     3    1
     9     2     1    1
    10     8     9    1
    11     8     1    1
