@<TRIPOS>MOLECULE
3
 27 26 0 0 0
SMALL
GASTEIGER

@<TRIPOS>ATOM
      1 SI          8.0804    0.5275    2.4505 Si      1  UNL1        0.0000
      2 SI          6.3111    3.0935    2.0634 Si      1  UNL1        0.0000
      3 N           6.6587    1.4086    2.0101 N.3     1  UNL1        0.0000
      4 C           9.5443    1.5760    3.0886 C.3     1  UNL1        0.0000
      5 H           9.9745    2.1766    2.2956 H       1  UNL1        0.0000
      6 H          10.3302    0.9406    3.4829 H       1  UNL1        0.0000
      7 H           9.2334    2.2473    3.8805 H       1  UNL1        0.0000
      8 C           8.6463   -0.4618    0.9176 C.3     1  UNL1        0.0000
      9 H           7.7756   -0.8979    0.4405 H       1  UNL1        0.0000
     10 H           9.3285   -1.2624    1.1798 H       1  UNL1        0.0000
     11 H           9.1461    0.1698    0.1914 H       1  UNL1        0.0000
     12 C           7.5188   -0.6784    3.8269 C.3     1  UNL1        0.0000
     13 H           7.3615   -0.1606    4.7668 H       1  UNL1        0.0000
     14 H           8.2394   -1.4690    4.0031 H       1  UNL1        0.0000
     15 H           6.5738   -1.1367    3.5368 H       1  UNL1        0.0000
     16 C           7.6123    4.1289    1.1133 C.3     1  UNL1        0.0000
     17 H           8.5777    4.0867    1.6048 H       1  UNL1        0.0000
     18 H           7.3154    5.1717    1.0613 H       1  UNL1        0.0000
     19 H           7.7471    3.7759    0.0959 H       1  UNL1        0.0000
     20 C           4.6132    3.3230    1.2307 C.3     1  UNL1        0.0000
     21 H           4.6026    2.8702    0.2455 H       1  UNL1        0.0000
     22 H           4.3596    4.3715    1.1175 H       1  UNL1        0.0000
     23 H           3.8333    2.8517    1.8151 H       1  UNL1        0.0000
     24 C           6.2371    3.7657    3.8544 C.3     1  UNL1        0.0000
     25 H           5.4876    3.2473    4.4431 H       1  UNL1        0.0000
     26 H           5.9931    4.8232    3.8680 H       1  UNL1        0.0000
     27 H           7.1906    3.6421    4.3570 H       1  UNL1        0.0000
@<TRIPOS>BOND
     1    19    16    1
     2    11     8    1
     3    21    20    1
     4     9     8    1
     5     8    10    1
     6     8     1    1
     7    18    16    1
     8    16    17    1
     9    16     2    1
    10    22    20    1
    11    20    23    1
    12    20     2    1
    13     3     2    1
    14     3     1    1
    15     2    24    1
    16     5     4    1
    17     1     4    1
    18     1    12    1
    19     4     6    1
    20     4     7    1
    21    15    12    1
    22    12    14    1
    23    12    13    1
    24    24    26    1
    25    24    27    1
    26    24    25    1
