@<TRIPOS>MOLECULE
3
 27 26 0 0 0
SMALL
GASTEIGER

@<TRIPOS>ATOM
      1 SI          2.9652   -0.5274    2.4505 Si      1  UNL1        0.0000
      2 SI          4.7345   -3.0933    2.0630 Si      1  UNL1        0.0000
      3 N           4.3867   -1.4084    2.0096 N.3     1  UNL1        0.0000
      4 C           1.5012   -1.5760    3.0883 C.3     1  UNL1        0.0000
      5 H           1.0710   -2.1765    2.2951 H       1  UNL1        0.0000
      6 H           0.7153   -0.9408    3.4828 H       1  UNL1        0.0000
      7 H           1.8121   -2.2476    3.8800 H       1  UNL1        0.0000
      8 C           2.3991    0.4625    0.9180 C.3     1  UNL1        0.0000
      9 H           3.2698    0.8984    0.4408 H       1  UNL1        0.0000
     10 H           1.7172    1.2633    1.1806 H       1  UNL1        0.0000
     11 H           1.8988   -0.1688    0.1918 H       1  UNL1        0.0000
     12 C           3.5269    0.6783    3.8272 C.3     1  UNL1        0.0000
     13 H           3.6851    0.1600    4.7668 H       1  UNL1        0.0000
     14 H           2.8059    1.4683    4.0044 H       1  UNL1        0.0000
     15 H           4.4715    1.1373    3.5368 H       1  UNL1        0.0000
     16 C           3.4334   -4.1291    1.1133 C.3     1  UNL1        0.0000
     17 H           2.4681   -4.0872    1.6051 H       1  UNL1        0.0000
     18 H           3.7305   -5.1718    1.0612 H       1  UNL1        0.0000
     19 H           3.2982   -3.7760    0.0959 H       1  UNL1        0.0000
     20 C           6.4322   -3.3226    1.2301 C.3     1  UNL1        0.0000
     21 H           6.4425   -2.8706    0.2446 H       1  UNL1        0.0000
     22 H           6.6862   -4.3711    1.1176 H       1  UNL1        0.0000
     23 H           7.2122   -2.8507    1.8140 H       1  UNL1        0.0000
     24 C           4.8090   -3.7654    3.8540 C.3     1  UNL1        0.0000
     25 H           5.5590   -3.2473    4.4423 H       1  UNL1        0.0000
     26 H           5.0523   -4.8230    3.8676 H       1  UNL1        0.0000
     27 H           3.8558   -3.6412    4.3570 H       1  UNL1        0.0000
@<TRIPOS>BOND
     1    19    16    1
     2    11     8    1
     3    21    20    1
     4     9     8    1
     5     8    10    1
     6     8     1    1
     7    18    16    1
     8    16    17    1
     9    16     2    1
    10    22    20    1
    11    20    23    1
    12    20     2    1
    13     3     2    1
    14     3     1    1
    15     2    24    1
    16     5     4    1
    17     1     4    1
    18     1    12    1
    19     4     6    1
    20     4     7    1
    21    15    12    1
    22    12    14    1
    23    12    13    1
    24    24    26    1
    25    24    27    1
    26    24    25    1
