@<TRIPOS>MOLECULE
1
 49 54 0 0 0
SMALL
GASTEIGER

@<TRIPOS>ATOM
      1 N           4.2364    2.2297    6.5869 N.3     1  UNL1        0.0000
      2 B           2.0875    3.0818    3.1667 B       1  UNL1        0.0000
      3 H           1.8152    2.0631    2.5854 H       1  UNL1        0.0000
      4 B           3.4879    4.1237    3.0081 B       1  UNL1        0.0000
      5 H           4.3434    4.0374    2.1866 H       1  UNL1        0.0000
      6 B           3.6892    4.7745    4.6284 B       1  UNL1        0.0000
      7 H           4.7008    5.0909    5.1917 H       1  UNL1        0.0000
      8 B           0.8883    4.9079    5.0026 B       1  UNL1        0.0000
      9 H           0.0381    5.0065    5.8135 H       1  UNL1        0.0000
     10 B           0.6615    4.1600    3.4278 B       1  UNL1        0.0000
     11 H          -0.4172    3.7866    3.1275 H       1  UNL1        0.0000
     12 B           1.9346    4.7117    2.3751 B       1  UNL1        0.0000
     13 H           1.7702    4.8275    1.2121 H       1  UNL1        0.0000
     14 B           2.9835    5.7987    3.3275 B       1  UNL1        0.0000
     15 H           3.5789    6.7033    2.8566 H       1  UNL1        0.0000
     16 B           2.3267    5.8843    4.9501 B       1  UNL1        0.0000
     17 H           2.4527    6.7450    5.7458 H       1  UNL1        0.0000
     18 B           1.2155    5.8378    3.5689 B       1  UNL1        0.0000
     19 H           0.5423    6.7516    3.2583 H       1  UNL1        0.0000
     20 C           2.3971    4.2238    5.5234 C.3     1  UNL1        0.0000
     21 C           1.4946    3.2769    4.6864 C.3     1  UNL1        0.0000
     22 C           2.5250    3.9844    7.0220 C.3     1  UNL1        0.0000
     23 H           2.4221    4.9291    7.5677 H       1  UNL1        0.0000
     24 H           1.7335    3.3215    7.3884 H       1  UNL1        0.0000
     25 C           3.8788    3.3711    7.4171 C.3     1  UNL1        0.0000
     26 H           4.6615    4.1616    7.3865 H       1  UNL1        0.0000
     27 H           3.8044    3.0625    8.4774 H       1  UNL1        0.0000
     28 C           5.1255    1.3642    7.3382 C.3     1  UNL1        0.0000
     29 H           4.7597    1.2220    8.3708 H       1  UNL1        0.0000
     30 H           6.1479    1.7799    7.4408 H       1  UNL1        0.0000
     31 H           5.1971    0.3741    6.8803 H       1  UNL1        0.0000
     32 C           2.2834    0.4247    5.4881 C.2     1  UNL1        0.0000
     33 H           2.7347   -0.4357    5.9629 H       1  UNL1        0.0000
     34 H           2.5153    0.6081    4.4380 H       1  UNL1        0.0000
     35 C           1.2964    1.1029    6.0855 C.2     1  UNL1        0.0000
     36 C           0.5962    2.2303    5.3659 C.3     1  UNL1        0.0000
     37 H          -0.0835    2.7212    6.0682 H       1  UNL1        0.0000
     38 H          -0.0336    1.7862    4.5833 H       1  UNL1        0.0000
     39 C           0.8149    0.7453    7.4310 C.ar    1  UNL1        0.0000
     40 C          -0.5471    0.7727    7.7313 C.ar    1  UNL1        0.0000
     41 H          -1.2638    1.0440    6.9704 H       1  UNL1        0.0000
     42 C          -0.9971    0.4232    8.9910 C.ar    1  UNL1        0.0000
     43 H          -2.0556    0.4437    9.2047 H       1  UNL1        0.0000
     44 C          -0.0983    0.0511    9.9763 C.ar    1  UNL1        0.0000
     45 H          -0.4516   -0.2120   10.9620 H       1  UNL1        0.0000
     46 C           1.2563    0.0172    9.6886 C.ar    1  UNL1        0.0000
     47 H           1.9631   -0.2728   10.4526 H       1  UNL1        0.0000
     48 C           1.7078    0.3536    8.4268 C.ar    1  UNL1        0.0000
     49 H           2.7630    0.3414    8.2076 H       1  UNL1        0.0000
@<TRIPOS>BOND
     1    13    12    1
     2     5     4    1
     3    12     4    1
     4    12    14    1
     5    12    10    1
     6     3     2    1
     7    15    14    1
     8     4     2    1
     9     4     6    1
    10    11    10    1
    11     2    21    1
    12    19    18    1
    13    14    18    1
    14    14    16    1
    15    10    18    1
    16    10    21    1
    17    18     8    1
    18    34    32    1
    19    38    36    1
    20     6     7    1
    21     6    20    1
    22    21    36    1
    23    21    20    1
    24    16     8    1
    25    16    17    1
    26     8    20    1
    27     8     9    1
    28    36    37    1
    29    36    35    1
    30    32    33    1
    31    32    35    2
    32    20    22    1
    33    35    39    1
    34     1    28    1
    35     1    25    1
    36    31    28    1
    37    41    40    1
    38    22    24    1
    39    22    25    1
    40    22    23    1
    41    28    30    1
    42    28    29    1
    43    26    25    1
    44    25    27    1
    45    39    40   ar
    46    39    48   ar
    47    40    42   ar
    48    49    48    1
    49    48    46   ar
    50    42    43    1
    51    42    44   ar
    52    46    44   ar
    53    46    47    1
    54    44    45    1
