@<TRIPOS>MOLECULE
3
 27 26 0 0 0
SMALL
GASTEIGER

@<TRIPOS>ATOM
      1 SI          1.8368    1.7339    5.8300 Si      1  UNL1        0.0000
      2 SI          0.8800    1.4311    8.7019 Si      1  UNL1        0.0000
      3 N           1.2222    2.4260    7.3008 N.3     1  UNL1        0.0000
      4 C           3.3622    0.6007    6.1116 C.3     1  UNL1        0.0000
      5 C           2.3385    3.1488    4.6489 C.3     1  UNL1        0.0000
      6 C           0.5646    0.6690    4.8636 C.3     1  UNL1        0.0000
      7 C          -0.7091    2.1054    9.5275 C.3     1  UNL1        0.0000
      8 C           2.3107    1.4927    9.9748 C.3     1  UNL1        0.0000
      9 C           0.5587   -0.4028    8.2772 C.3     1  UNL1        0.0000
     10 H           4.1649    0.8348    5.4193 H       1  UNL1        0.0000
     11 H           3.7555    0.6906    7.1180 H       1  UNL1        0.0000
     12 H           3.0985   -0.4400    5.9545 H       1  UNL1        0.0000
     13 H           2.7454    2.7485    3.7247 H       1  UNL1        0.0000
     14 H           1.4829    3.7661    4.3806 H       1  UNL1        0.0000
     15 H           3.0932    3.7904    5.0968 H       1  UNL1        0.0000
     16 H           1.0520    0.2207    4.0030 H       1  UNL1        0.0000
     17 H           0.1718   -0.1381    5.4705 H       1  UNL1        0.0000
     18 H          -0.2784    1.2441    4.4956 H       1  UNL1        0.0000
     19 H          -0.8480    1.6791   10.5163 H       1  UNL1        0.0000
     20 H          -0.6199    3.1857    9.6313 H       1  UNL1        0.0000
     21 H          -1.6016    1.8862    8.9485 H       1  UNL1        0.0000
     22 H           2.0233    1.0220   10.9097 H       1  UNL1        0.0000
     23 H           3.2117    0.9982    9.6237 H       1  UNL1        0.0000
     24 H           2.5463    2.5354   10.1832 H       1  UNL1        0.0000
     25 H           0.4419   -0.9714    9.1924 H       1  UNL1        0.0000
     26 H          -0.3491   -0.5300    7.6997 H       1  UNL1        0.0000
     27 H           1.3763   -0.8404    7.7197 H       1  UNL1        0.0000
@<TRIPOS>BOND
     1    13     5    1
     2    16     6    1
     3    14     5    1
     4    18     6    1
     5     5    15    1
     6     5     1    1
     7     6    17    1
     8     6     1    1
     9    10     4    1
    10     1     4    1
    11     1     3    1
    12    12     4    1
    13     4    11    1
    14     3     2    1
    15    26     9    1
    16    27     9    1
    17     9     2    1
    18     9    25    1
    19     2     7    1
    20     2     8    1
    21    21     7    1
    22     7    20    1
    23     7    19    1
    24    23     8    1
    25     8    24    1
    26     8    22    1
