@<TRIPOS>MOLECULE
3
 27 26 0 0 0
SMALL
GASTEIGER

@<TRIPOS>ATOM
      1 SI         -2.0766    4.7805    7.0933 Si      1  UNL1        0.0000
      2 SI         -0.7247    6.5235    9.1892 Si      1  UNL1        0.0000
      3 N          -0.6412    5.3514    7.8894 N.3     1  UNL1        0.0000
      4 C          -2.9290    6.0821    5.9684 C.3     1  UNL1        0.0000
      5 C          -3.4292    4.1796    8.3173 C.3     1  UNL1        0.0000
      6 C          -1.6056    3.3274    5.9465 C.3     1  UNL1        0.0000
      7 C          -2.3040    7.5964    9.1501 C.3     1  UNL1        0.0000
      8 C           0.7654    7.7110    9.0120 C.3     1  UNL1        0.0000
      9 C          -0.6366    5.6757   10.9050 C.3     1  UNL1        0.0000
     10 H          -3.8546    5.6689    5.5791 H       1  UNL1        0.0000
     11 H          -3.1808    6.9834    6.5145 H       1  UNL1        0.0000
     12 H          -2.3204    6.3718    5.1184 H       1  UNL1        0.0000
     13 H          -3.8652    3.2391    7.9956 H       1  UNL1        0.0000
     14 H          -3.0400    4.0388    9.3191 H       1  UNL1        0.0000
     15 H          -4.2369    4.9011    8.3786 H       1  UNL1        0.0000
     16 H          -2.4859    2.9376    5.4434 H       1  UNL1        0.0000
     17 H          -0.9076    3.6413    5.1724 H       1  UNL1        0.0000
     18 H          -1.1506    2.5128    6.5043 H       1  UNL1        0.0000
     19 H          -2.3254    8.2412   10.0208 H       1  UNL1        0.0000
     20 H          -2.3371    8.2341    8.2747 H       1  UNL1        0.0000
     21 H          -3.2039    6.9957    9.1630 H       1  UNL1        0.0000
     22 H           0.8963    8.3105    9.9076 H       1  UNL1        0.0000
     23 H           1.6689    7.1224    8.8606 H       1  UNL1        0.0000
     24 H           0.6537    8.3938    8.1748 H       1  UNL1        0.0000
     25 H          -0.5168    6.4076   11.6975 H       1  UNL1        0.0000
     26 H          -1.5216    5.0892   11.1331 H       1  UNL1        0.0000
     27 H           0.2304    5.0169   10.9236 H       1  UNL1        0.0000
@<TRIPOS>BOND
     1    12     4    1
     2    17     6    1
     3    16     6    1
     4    10     4    1
     5     6    18    1
     6     6     1    1
     7     4    11    1
     8     4     1    1
     9     1     3    1
    10     1     5    1
    11     3     2    1
    12    13     5    1
    13    24     8    1
    14    20     7    1
    15     5    15    1
    16     5    14    1
    17    23     8    1
    18     8     2    1
    19     8    22    1
    20     7    21    1
    21     7     2    1
    22     7    19    1
    23     2     9    1
    24     9    27    1
    25     9    26    1
    26     9    25    1
