@<TRIPOS>MOLECULE
3
 27 26 0 0 0
SMALL
GASTEIGER

@<TRIPOS>ATOM
      1 SI          2.3775    6.8213    5.6216 Si      1  UNL1        0.0000
      2 SI          4.2588    5.4237    7.5628 Si      1  UNL1        0.0000
      3 N           2.6905    5.5803    6.7974 N.3     1  UNL1        0.0000
      4 C           3.2622    6.5539    3.9387 C.3     1  UNL1        0.0000
      5 C           2.8968    8.5718    6.2186 C.3     1  UNL1        0.0000
      6 C           0.5083    6.8434    5.2293 C.3     1  UNL1        0.0000
      7 C           4.2824    6.2375    9.2972 C.3     1  UNL1        0.0000
      8 C           5.6837    6.1841    6.5438 C.3     1  UNL1        0.0000
      9 C           4.6371    3.5580    7.7569 C.3     1  UNL1        0.0000
     10 H           3.0803    7.4112    3.2976 H       1  UNL1        0.0000
     11 H           4.3350    6.4599    4.0575 H       1  UNL1        0.0000
     12 H           2.9114    5.6738    3.4103 H       1  UNL1        0.0000
     13 H           2.1077    9.2984    6.0526 H       1  UNL1        0.0000
     14 H           3.1433    8.5856    7.2743 H       1  UNL1        0.0000
     15 H           3.7688    8.9179    5.6738 H       1  UNL1        0.0000
     16 H           0.2802    7.6221    4.5072 H       1  UNL1        0.0000
     17 H           0.1805    5.8998    4.7964 H       1  UNL1        0.0000
     18 H          -0.0829    7.0311    6.1220 H       1  UNL1        0.0000
     19 H           5.1932    5.9893    9.8329 H       1  UNL1        0.0000
     20 H           4.2110    7.3205    9.2586 H       1  UNL1        0.0000
     21 H           3.4404    5.8552    9.8727 H       1  UNL1        0.0000
     22 H           6.6042    6.1330    7.1135 H       1  UNL1        0.0000
     23 H           5.8473    5.6475    5.6168 H       1  UNL1        0.0000
     24 H           5.5023    7.2234    6.3033 H       1  UNL1        0.0000
     25 H           5.4809    3.3968    8.4208 H       1  UNL1        0.0000
     26 H           3.7663    3.0652    8.1865 H       1  UNL1        0.0000
     27 H           4.8709    3.0815    6.8094 H       1  UNL1        0.0000
@<TRIPOS>BOND
     1    10     4    1
     2    12     4    1
     3     4    11    1
     4     4     1    1
     5    16     6    1
     6    17     6    1
     7     6     1    1
     8     6    18    1
     9    23     8    1
    10     1     5    1
    11     1     3    1
    12    15     5    1
    13    13     5    1
    14     5    14    1
    15    24     8    1
    16     8    22    1
    17     8     2    1
    18     3     2    1
    19    27     9    1
    20     2     9    1
    21     2     7    1
    22     9    26    1
    23     9    25    1
    24    20     7    1
    25     7    19    1
    26     7    21    1
