@<TRIPOS>MOLECULE
1
 21 20 0 0 0
SMALL
GASTEIGER

@<TRIPOS>ATOM
      1 N           8.9674   -0.0621    7.4834 N.3     1  UNL1       -0.2348
      2 C           7.6235   -1.4474    5.9399 C.3     1  UNL1       -0.0484
      3 H           8.5223   -1.6174    5.3477 H       1  UNL1        0.0245
      4 H           6.7647   -1.4034    5.2728 H       1  UNL1        0.0245
      5 H           7.4867   -2.2880    6.6165 H       1  UNL1        0.0245
      6 C           7.7535   -0.1212    6.7079 C.3     1  UNL1        0.0200
      7 H           7.8096    0.6635    5.9410 H       1  UNL1        0.0471
      8 C           9.2763   -0.3581    9.8910 C.3     1  UNL1       -0.0484
      9 H          10.2030    0.2085    9.8661 H       1  UNL1        0.0245
     10 H           9.3199   -1.0937   10.6904 H       1  UNL1        0.0245
     11 H           8.4490    0.3227   10.0828 H       1  UNL1        0.0245
     12 C           6.4900    0.1515    7.5414 C.3     1  UNL1       -0.0484
     13 H           6.2878   -0.6641    8.2320 H       1  UNL1        0.0245
     14 H           5.6296    0.2649    6.8853 H       1  UNL1        0.0245
     15 H           6.6144    1.0677    8.1165 H       1  UNL1        0.0245
     16 C          10.2967   -1.9651    8.2633 C.3     1  UNL1       -0.0484
     17 H          10.1437   -2.5312    7.3474 H       1  UNL1        0.0245
     18 H          10.4428   -2.6574    9.0886 H       1  UNL1        0.0245
     19 H          11.1803   -1.3379    8.1516 H       1  UNL1        0.0245
     20 C           9.0991   -1.0522    8.5377 C.3     1  UNL1        0.0200
     21 H           8.1905   -1.6683    8.5836 H       1  UNL1        0.0471
@<TRIPOS>BOND
     1     4     2    1
     2     3     2    1
     3     2     5    1
     4     2     6    1
     5     7     6    1
     6     6     1    1
     7     6    12    1
     8    14    12    1
     9    17    16    1
    10     1    20    1
    11    12    15    1
    12    12    13    1
    13    19    16    1
    14    16    20    1
    15    16    18    1
    16    20    21    1
    17    20     8    1
    18     9     8    1
    19     8    11    1
    20     8    10    1
