@<TRIPOS>MOLECULE
13
 21 20 0 0 0
SMALL
GASTEIGER

@<TRIPOS>ATOM
      1 C          10.4730    3.8331    8.1558 C.3     1  UNL1        0.0200
      2 H          10.0035    4.8240    8.0891 H       1  UNL1        0.0471
      3 C           8.6520    3.4336    6.5585 C.3     1  UNL1        0.0200
      4 H           8.1802    2.6042    6.0161 H       1  UNL1        0.0471
      5 C           9.1458    4.4172    5.4853 C.3     1  UNL1       -0.0484
      6 H           9.5362    5.3280    5.9344 H       1  UNL1        0.0245
      7 H           8.3291    4.6806    4.8163 H       1  UNL1        0.0245
      8 H           9.9355    3.9446    4.9014 H       1  UNL1        0.0245
      9 C           7.5546    4.0716    7.4275 C.3     1  UNL1       -0.0484
     10 H           7.2811    3.3974    8.2379 H       1  UNL1        0.0245
     11 H           6.6727    4.2666    6.8213 H       1  UNL1        0.0245
     12 H           7.8840    5.0131    7.8606 H       1  UNL1        0.0245
     13 N           9.7498    2.8926    7.3193 N.3     1  UNL1       -0.2348
     14 C          11.9268    3.9516    7.6893 C.3     1  UNL1       -0.0484
     15 H          12.3788    2.9620    7.7341 H       1  UNL1        0.0245
     16 H          12.4762    4.6333    8.3338 H       1  UNL1        0.0245
     17 H          11.9724    4.3160    6.6652 H       1  UNL1        0.0245
     18 C          10.4361    3.3772    9.6167 C.3     1  UNL1       -0.0484
     19 H           9.4091    3.2656    9.9587 H       1  UNL1        0.0245
     20 H          10.9425    4.1000   10.2512 H       1  UNL1        0.0245
     21 H          10.9399    2.4168    9.6857 H       1  UNL1        0.0245
@<TRIPOS>BOND
     1     7     5    1
     2     8     5    1
     3     5     6    1
     4     5     3    1
     5     4     3    1
     6     3    13    1
     7     3     9    1
     8    17    14    1
     9    11     9    1
    10    13     1    1
    11     9    12    1
    12     9    10    1
    13    14    15    1
    14    14     1    1
    15    14    16    1
    16     2     1    1
    17     1    18    1
    18    18    21    1
    19    18    19    1
    20    18    20    1
