@<TRIPOS>MOLECULE
3
 27 26 0 0 0
SMALL
GASTEIGER

@<TRIPOS>ATOM
      1 SI          2.6752    5.6173   13.2515 Si      1  UNL1        0.0000
      2 SI          4.3103    8.0975   12.8815 Si      1  UNL1        0.0000
      3 N           4.1906    6.3911   13.0205 N.3     1  UNL1        0.0000
      4 C           1.3362    6.0366   11.9321 C.3     1  UNL1        0.0000
      5 H           1.1434    7.1043   11.9180 H       1  UNL1        0.0000
      6 H           0.3954    5.5357   12.1418 H       1  UNL1        0.0000
      7 H           1.6485    5.7483   10.9352 H       1  UNL1        0.0000
      8 C           1.7726    6.0224   14.9018 C.3     1  UNL1        0.0000
      9 H           2.4805    6.1681   15.7084 H       1  UNL1        0.0000
     10 H           1.0974    5.2238   15.1957 H       1  UNL1        0.0000
     11 H           1.1845    6.9295   14.8123 H       1  UNL1        0.0000
     12 C           2.9665    3.7316   13.1926 C.3     1  UNL1        0.0000
     13 H           3.5659    3.4097   14.0399 H       1  UNL1        0.0000
     14 H           3.4853    3.4530   12.2778 H       1  UNL1        0.0000
     15 H           2.0301    3.1804   13.2203 H       1  UNL1        0.0000
     16 C           3.0557    9.1041   13.9344 C.3     1  UNL1        0.0000
     17 H           2.0420    8.9506   13.5809 H       1  UNL1        0.0000
     18 H           3.2615   10.1699   13.8934 H       1  UNL1        0.0000
     19 H           3.0879    8.8019   14.9752 H       1  UNL1        0.0000
     20 C           4.0064    8.7552   11.0961 C.3     1  UNL1        0.0000
     21 H           3.0549    8.3964   10.7182 H       1  UNL1        0.0000
     22 H           4.7733    8.4260   10.4036 H       1  UNL1        0.0000
     23 H           3.9850    9.8411   11.0694 H       1  UNL1        0.0000
     24 C           6.0335    8.6900   13.4678 C.3     1  UNL1        0.0000
     25 H           6.7993    7.9297   13.3172 H       1  UNL1        0.0000
     26 H           6.0199    8.9408   14.5236 H       1  UNL1        0.0000
     27 H           6.3400    9.5817   12.9295 H       1  UNL1        0.0000
@<TRIPOS>BOND
     1    22    20    1
     2    21    20    1
     3     7     4    1
     4    23    20    1
     5    20     2    1
     6     5     4    1
     7     4     6    1
     8     4     1    1
     9    14    12    1
    10     2     3    1
    11     2    24    1
    12     2    16    1
    13    27    24    1
    14     3     1    1
    15    12    15    1
    16    12     1    1
    17    12    13    1
    18     1     8    1
    19    25    24    1
    20    24    26    1
    21    17    16    1
    22    18    16    1
    23    16    19    1
    24    11     8    1
    25     8    10    1
    26     8     9    1
