@<TRIPOS>MOLECULE
3
 27 26 0 0 0
SMALL
GASTEIGER

@<TRIPOS>ATOM
      1 SI          8.0070    2.6666   10.5409 Si      1  UNL1        0.0000
      2 SI          5.3080    3.5249    9.5745 Si      1  UNL1        0.0000
      3 N           6.5435    3.5358   10.7657 N.3     1  UNL1        0.0000
      4 C           7.7886    0.7911   10.1616 C.3     1  UNL1        0.0000
      5 H           7.2532    0.2798   10.9529 H       1  UNL1        0.0000
      6 H           8.7450    0.2926   10.0331 H       1  UNL1        0.0000
      7 H           7.2229    0.6566    9.2455 H       1  UNL1        0.0000
      8 C           9.1172    3.2591    9.0852 C.3     1  UNL1        0.0000
      9 H           8.8188    2.7937    8.1519 H       1  UNL1        0.0000
     10 H          10.1621    3.0140    9.2525 H       1  UNL1        0.0000
     11 H           9.0481    4.3320    8.9541 H       1  UNL1        0.0000
     12 C           9.0277    2.8153   12.1474 C.3     1  UNL1        0.0000
     13 H           8.4376    2.5041   13.0068 H       1  UNL1        0.0000
     14 H           9.3478    3.8419   12.3036 H       1  UNL1        0.0000
     15 H           9.9175    2.1916   12.1161 H       1  UNL1        0.0000
     16 C           5.9130    3.4472    7.7512 C.3     1  UNL1        0.0000
     17 H           6.3967    2.4992    7.5429 H       1  UNL1        0.0000
     18 H           6.6310    4.2327    7.5437 H       1  UNL1        0.0000
     19 H           5.0901    3.5585    7.0508 H       1  UNL1        0.0000
     20 C           4.2726    5.1311    9.6793 C.3     1  UNL1        0.0000
     21 H           4.2473    5.5350   10.6908 H       1  UNL1        0.0000
     22 H           3.2482    4.9529    9.3668 H       1  UNL1        0.0000
     23 H           4.6785    5.8979    9.0273 H       1  UNL1        0.0000
     24 C           4.1212    2.0126    9.7028 C.3     1  UNL1        0.0000
     25 H           3.5969    1.9849   10.6516 H       1  UNL1        0.0000
     26 H           4.6793    1.0863    9.6160 H       1  UNL1        0.0000
     27 H           3.3735    2.0236    8.9147 H       1  UNL1        0.0000
@<TRIPOS>BOND
     1    19    16    1
     2    17    16    1
     3    18    16    1
     4    16     2    1
     5     9     8    1
     6    27    24    1
     7    11     8    1
     8    23    20    1
     9     8    10    1
    10     8     1    1
    11     7     4    1
    12    22    20    1
    13     2    20    1
    14     2    24    1
    15     2     3    1
    16    26    24    1
    17    20    21    1
    18    24    25    1
    19     6     4    1
    20     4     1    1
    21     4     5    1
    22     1     3    1
    23     1    12    1
    24    15    12    1
    25    12    14    1
    26    12    13    1
