@<TRIPOS>MOLECULE
3
 27 26 0 0 0
SMALL
GASTEIGER

@<TRIPOS>ATOM
      1 SI          9.5577    6.1970   14.2698 Si      1  UNL1        0.0000
      2 SI          8.9571    6.9791   11.4436 Si      1  UNL1        0.0000
      3 N           8.5249    6.1775   12.8992 N.3     1  UNL1        0.0000
      4 C           9.3420    7.7549   15.3829 C.3     1  UNL1        0.0000
      5 H           8.3460    7.8186   15.8071 H       1  UNL1        0.0000
      6 H           9.5046    8.6582   14.8046 H       1  UNL1        0.0000
      7 H          10.0501    7.7574   16.2069 H       1  UNL1        0.0000
      8 C           9.2695    4.6352   15.3380 C.3     1  UNL1        0.0000
      9 H           9.9375    3.8329   15.0414 H       1  UNL1        0.0000
     10 H           8.2483    4.2656   15.2528 H       1  UNL1        0.0000
     11 H           9.4617    4.8420   16.3865 H       1  UNL1        0.0000
     12 C          11.4421    6.1950   13.8890 C.3     1  UNL1        0.0000
     13 H          11.7067    5.3773   13.2280 H       1  UNL1        0.0000
     14 H          12.0340    6.0928   14.7941 H       1  UNL1        0.0000
     15 H          11.7404    7.1175   13.4030 H       1  UNL1        0.0000
     16 C           7.4806    6.8430   10.2409 C.3     1  UNL1        0.0000
     17 H           6.5675    7.2002   10.7126 H       1  UNL1        0.0000
     18 H           7.3290    5.8110    9.9367 H       1  UNL1        0.0000
     19 H           7.6397    7.4337    9.3424 H       1  UNL1        0.0000
     20 C          10.5126    6.2943   10.5413 C.3     1  UNL1        0.0000
     21 H          10.5919    5.2208   10.6610 H       1  UNL1        0.0000
     22 H          11.4202    6.7374   10.9372 H       1  UNL1        0.0000
     23 H          10.4841    6.5061    9.4763 H       1  UNL1        0.0000
     24 C           9.3778    8.8485   11.6382 C.3     1  UNL1        0.0000
     25 H           8.5458    9.4081   12.0490 H       1  UNL1        0.0000
     26 H           9.6445    9.3015   10.6877 H       1  UNL1        0.0000
     27 H          10.2202    8.9759   12.3102 H       1  UNL1        0.0000
@<TRIPOS>BOND
     1    19    16    1
     2    23    20    1
     3    18    16    1
     4    16    17    1
     5    16     2    1
     6    20    21    1
     7    20    22    1
     8    20     2    1
     9    26    24    1
    10     2    24    1
    11     2     3    1
    12    24    25    1
    13    24    27    1
    14     3     1    1
    15    13    12    1
    16    15    12    1
    17    12     1    1
    18    12    14    1
    19     1     8    1
    20     1     4    1
    21     6     4    1
    22     9     8    1
    23    10     8    1
    24     8    11    1
    25     4     5    1
    26     4     7    1
