@<TRIPOS>MOLECULE
3
 27 26 0 0 0
SMALL
GASTEIGER

@<TRIPOS>ATOM
      1 SI          5.5099    4.3357   16.5059 Si      1  UNL1        0.0000
      2 SI          5.9793    1.7818   15.0163 Si      1  UNL1        0.0000
      3 N           5.8933    3.4953   15.0584 N.3     1  UNL1        0.0000
      4 C           6.6400    3.9260   18.0107 C.3     1  UNL1        0.0000
      5 H           6.5861    2.8679   18.2448 H       1  UNL1        0.0000
      6 H           6.3400    4.4745   18.8990 H       1  UNL1        0.0000
      7 H           7.6783    4.1634   17.8112 H       1  UNL1        0.0000
      8 C           5.6756    6.2052   16.1576 C.3     1  UNL1        0.0000
      9 H           6.6564    6.4318   15.7449 H       1  UNL1        0.0000
     10 H           5.5558    6.7941   17.0633 H       1  UNL1        0.0000
     11 H           4.9201    6.5311   15.4479 H       1  UNL1        0.0000
     12 C           3.7476    4.0225   17.2121 C.3     1  UNL1        0.0000
     13 H           3.7298    3.1367   17.8381 H       1  UNL1        0.0000
     14 H           3.0285    3.8763   16.4155 H       1  UNL1        0.0000
     15 H           3.4043    4.8564   17.8175 H       1  UNL1        0.0000
     16 C           7.6883    1.0758   15.5581 C.3     1  UNL1        0.0000
     17 H           7.9551    1.4451   16.5426 H       1  UNL1        0.0000
     18 H           8.4829    1.3648   14.8791 H       1  UNL1        0.0000
     19 H           7.6750   -0.0096   15.6040 H       1  UNL1        0.0000
     20 C           5.5839    1.1427   13.2557 C.3     1  UNL1        0.0000
     21 H           4.5266    0.9215   13.1506 H       1  UNL1        0.0000
     22 H           6.1266    0.2260   13.0459 H       1  UNL1        0.0000
     23 H           5.8489    1.8700   12.4889 H       1  UNL1        0.0000
     24 C           4.7445    0.8618   16.1671 C.3     1  UNL1        0.0000
     25 H           3.7273    1.1956   15.9954 H       1  UNL1        0.0000
     26 H           4.9768    1.0455   17.2104 H       1  UNL1        0.0000
     27 H           4.7711   -0.2123   16.0074 H       1  UNL1        0.0000
@<TRIPOS>BOND
     1    23    20    1
     2    22    20    1
     3    21    20    1
     4    20     2    1
     5    18    16    1
     6     2     3    1
     7     2    16    1
     8     2    24    1
     9     3     1    1
    10    11     8    1
    11    16    19    1
    12    16    17    1
    13     9     8    1
    14    25    24    1
    15    27    24    1
    16     8     1    1
    17     8    10    1
    18    24    26    1
    19    14    12    1
    20     1    12    1
    21     1     4    1
    22    12    15    1
    23    12    13    1
    24     7     4    1
    25     4     5    1
    26     4     6    1
