@<TRIPOS>MOLECULE
1
 11 11 0 0 0
SMALL
GASTEIGER

@<TRIPOS>ATOM
      1 N           6.4562    7.3327    7.9388 N.pl3   1  UNL1       -0.2487
      2 C           7.3099    6.5402    8.5764 C.3     1  UNL1        0.0840
      3 H           6.9280    6.0054    9.4383 H       1  UNL1        0.0584
      4 C           8.6296    6.3841    8.1818 C.2     1  UNL1       -0.0600
      5 H           9.2826    5.7282    8.7354 H       1  UNL1        0.0592
      6 C           9.0837    7.0820    7.0755 C.2     1  UNL1       -0.0626
      7 H          10.1058    6.9862    6.7401 H       1  UNL1        0.0615
      8 C           8.1928    7.9074    6.4082 C.2     1  UNL1       -0.0466
      9 H           8.4974    8.4716    5.5401 H       1  UNL1        0.0630
     10 C           6.8936    7.9981    6.8781 C.2     1  UNL1        0.0121
     11 H           6.1705    8.6330    6.3817 H       1  UNL1        0.0797
@<TRIPOS>BOND
     1     9     8    1
     2    11    10    1
     3     8    10    2
     4     8     6    1
     5     7     6    1
     6    10     1    1
     7     6     4    2
     8     1     2    1
     9     4     2    1
    10     4     5    1
    11     2     3    1
