@<TRIPOS>MOLECULE
1
 19 19 0 0 0
SMALL
GASTEIGER

@<TRIPOS>ATOM
      1 N           0.5434   11.7744    6.5529 N.pl3   1  UNL1       -0.2486
      2 N          -0.9956    9.9863   10.0205 N.pl3   1  UNL1       -0.3362
      3 C           0.9287   12.1471    7.7704 C.3     1  UNL1        0.0857
      4 H           1.6659   12.9332    7.8026 H       1  UNL1        0.0584
      5 C           0.4657   11.5891    8.9411 C.2     1  UNL1       -0.0389
      6 H           0.8483   11.9568    9.8780 H       1  UNL1        0.0610
      7 C          -0.4880   10.5575    8.8929 C.2     1  UNL1        0.0283
      8 C          -0.8881   10.1664    7.6048 C.2     1  UNL1       -0.0256
      9 H          -1.6019    9.3750    7.4522 H       1  UNL1        0.0649
     10 C          -0.3456   10.7882    6.4998 C.2     1  UNL1        0.0139
     11 H          -0.6441   10.4746    5.5125 H       1  UNL1        0.0798
     12 C          -0.4226   10.2953   11.3079 C.3     1  UNL1        0.0004
     13 H           0.6573   10.1183   11.3146 H       1  UNL1        0.0428
     14 H          -0.8763    9.6651   12.0688 H       1  UNL1        0.0428
     15 H          -0.6060   11.3401   11.5762 H       1  UNL1        0.0428
     16 C          -1.9640    8.9222    9.9241 C.3     1  UNL1        0.0004
     17 H          -2.8152    9.2365    9.3165 H       1  UNL1        0.0428
     18 H          -2.3324    8.6765   10.9173 H       1  UNL1        0.0428
     19 H          -1.5329    8.0175    9.4806 H       1  UNL1        0.0428
@<TRIPOS>BOND
     1    11    10    1
     2    10     1    1
     3    10     8    2
     4     1     3    1
     5     9     8    1
     6     8     7    1
     7     3     4    1
     8     3     5    1
     9     7     5    2
    10     7     2    1
    11     5     6    1
    12    17    16    1
    13    19    16    1
    14    16     2    1
    15    16    18    1
    16     2    12    1
    17    12    13    1
    18    12    15    1
    19    12    14    1
