@<TRIPOS>MOLECULE
2
 43 43 0 0 0
SMALL
GASTEIGER

@<TRIPOS>ATOM
      1 SI          4.4451   12.9670    3.9403 Si      1  UNL1        0.0000
      2 N           3.2590   12.6370    5.1589 N.pl3   1  UNL1        0.0000
      3 C           3.6709   11.9844    6.3241 C.ar    1  UNL1        0.0000
      4 C           3.5385   10.5869    6.4659 C.ar    1  UNL1        0.0000
      5 C           3.9913    9.9670    7.6190 C.ar    1  UNL1        0.0000
      6 H           3.9109    8.8950    7.7166 H       1  UNL1        0.0000
      7 C           4.5603   10.6872    8.6515 C.ar    1  UNL1        0.0000
      8 H           4.9140   10.1842    9.5404 H       1  UNL1        0.0000
      9 C           4.6761   12.0566    8.5279 C.ar    1  UNL1        0.0000
     10 H           5.1247   12.6223    9.3320 H       1  UNL1        0.0000
     11 C           4.2425   12.7144    7.3882 C.ar    1  UNL1        0.0000
     12 C           2.9327    9.7538    5.3605 C.3     1  UNL1        0.0000
     13 H           2.3027   10.4246    4.7610 H       1  UNL1        0.0000
     14 C           2.0711    8.6088    5.8973 C.3     1  UNL1        0.0000
     15 H           2.6885    7.8197    6.3215 H       1  UNL1        0.0000
     16 H           1.4909    8.1676    5.0902 H       1  UNL1        0.0000
     17 H           1.3865    8.9642    6.6620 H       1  UNL1        0.0000
     18 C           4.0318    9.1688    4.4694 C.3     1  UNL1        0.0000
     19 H           4.6255    9.9596    4.0260 H       1  UNL1        0.0000
     20 H           3.5931    8.5686    3.6741 H       1  UNL1        0.0000
     21 H           4.6918    8.5321    5.0566 H       1  UNL1        0.0000
     22 C           4.4123   14.2135    7.3014 C.3     1  UNL1        0.0000
     23 H           3.8948   14.5468    6.3991 H       1  UNL1        0.0000
     24 C           3.7942   14.9404    8.4987 C.3     1  UNL1        0.0000
     25 H           2.7442   14.6812    8.6114 H       1  UNL1        0.0000
     26 H           3.8630   16.0175    8.3528 H       1  UNL1        0.0000
     27 H           4.3110   14.6908    9.4227 H       1  UNL1        0.0000
     28 C           5.8949   14.5775    7.1904 C.3     1  UNL1        0.0000
     29 H           6.4303   14.2779    8.0892 H       1  UNL1        0.0000
     30 H           6.0147   15.6527    7.0640 H       1  UNL1        0.0000
     31 H           6.3457   14.0728    6.3417 H       1  UNL1        0.0000
     32 C           4.8884   14.8085    3.6062 C.3     1  UNL1        0.0000
     33 H           4.0719   15.3350    3.1251 H       1  UNL1        0.0000
     34 H           5.7368   14.8593    2.9292 H       1  UNL1        0.0000
     35 H           5.1579   15.3535    4.5041 H       1  UNL1        0.0000
     36 C           6.1340   12.1329    4.3162 C.3     1  UNL1        0.0000
     37 H           6.0995   11.5808    5.2503 H       1  UNL1        0.0000
     38 H           6.9306   12.8670    4.3973 H       1  UNL1        0.0000
     39 H           6.4230   11.4407    3.5315 H       1  UNL1        0.0000
     40 C           3.7534   12.3094    2.2792 C.3     1  UNL1        0.0000
     41 H           3.8442   11.2326    2.1871 H       1  UNL1        0.0000
     42 H           4.2741   12.7565    1.4388 H       1  UNL1        0.0000
     43 H           2.7007   12.5599    2.1884 H       1  UNL1        0.0000
@<TRIPOS>BOND
     1    42    40    1
     2    41    40    1
     3    43    40    1
     4    40     1    1
     5    34    32    1
     6    33    32    1
     7    39    36    1
     8    32     1    1
     9    32    35    1
    10    20    18    1
    11     1    36    1
    12     1     2    1
    13    19    18    1
    14    36    38    1
    15    36    37    1
    16    18    21    1
    17    18    12    1
    18    13    12    1
    19    16    14    1
    20     2     3    1
    21    12    14    1
    22    12     4    1
    23    14    15    1
    24    14    17    1
    25     3     4   ar
    26     3    11   ar
    27    31    28    1
    28    23    22    1
    29     4     5   ar
    30    30    28    1
    31    28    22    1
    32    28    29    1
    33    22    11    1
    34    22    24    1
    35    11     9   ar
    36     5     6    1
    37     5     7   ar
    38    26    24    1
    39    24    25    1
    40    24    27    1
    41     9     7   ar
    42     9    10    1
    43     7     8    1
