@<TRIPOS>MOLECULE
2
 43 43 0 0 0
SMALL
GASTEIGER

@<TRIPOS>ATOM
      1 SI         -0.4181   14.7997    2.9455 Si      1  UNL1        0.0000
      2 N          -0.2275   13.4139    3.9609 N.pl3   1  UNL1        0.0000
      3 C          -1.2788   12.5015    4.0296 C.ar    1  UNL1        0.0000
      4 C          -1.2080   11.3167    3.2602 C.ar    1  UNL1        0.0000
      5 C          -2.2824   10.4439    3.2357 C.ar    1  UNL1        0.0000
      6 H          -2.2388    9.5584    2.6192 H       1  UNL1        0.0000
      7 C          -3.4177   10.6840    3.9885 C.ar    1  UNL1        0.0000
      8 H          -4.2503    9.9958    3.9562 H       1  UNL1        0.0000
      9 C          -3.4689   11.8095    4.7862 C.ar    1  UNL1        0.0000
     10 H          -4.3489   11.9886    5.3876 H       1  UNL1        0.0000
     11 C          -2.4244   12.7206    4.8158 C.ar    1  UNL1        0.0000
     12 C           0.0444   11.0029    2.4740 C.3     1  UNL1        0.0000
     13 H           0.8614   11.5763    2.9450 H       1  UNL1        0.0000
     14 C           0.4149    9.5203    2.5224 C.3     1  UNL1        0.0000
     15 H           0.3368    9.1402    3.5369 H       1  UNL1        0.0000
     16 H           1.4378    9.3845    2.1783 H       1  UNL1        0.0000
     17 H          -0.2348    8.9293    1.8796 H       1  UNL1        0.0000
     18 C          -0.0926   11.4504    1.0177 C.3     1  UNL1        0.0000
     19 H          -0.9342   10.9459    0.5453 H       1  UNL1        0.0000
     20 H           0.8121   11.2082    0.4630 H       1  UNL1        0.0000
     21 H          -0.2587   12.5208    0.9655 H       1  UNL1        0.0000
     22 C          -2.5338   13.9422    5.6939 C.3     1  UNL1        0.0000
     23 H          -1.6018   14.5023    5.5872 H       1  UNL1        0.0000
     24 C          -3.7002   14.8270    5.2481 C.3     1  UNL1        0.0000
     25 H          -3.6116   15.0625    4.1908 H       1  UNL1        0.0000
     26 H          -3.7128   15.7566    5.8156 H       1  UNL1        0.0000
     27 H          -4.6505   14.3211    5.4054 H       1  UNL1        0.0000
     28 C          -2.6965   13.5563    7.1664 C.3     1  UNL1        0.0000
     29 H          -3.6275   13.0172    7.3280 H       1  UNL1        0.0000
     30 H          -2.7089   14.4492    7.7899 H       1  UNL1        0.0000
     31 H          -1.8760   12.9185    7.4845 H       1  UNL1        0.0000
     32 C           1.2642   15.0449    2.0762 C.3     1  UNL1        0.0000
     33 H           2.0519   14.7475    2.7622 H       1  UNL1        0.0000
     34 H           1.4209   16.0836    1.8077 H       1  UNL1        0.0000
     35 H           1.3691   14.4534    1.1739 H       1  UNL1        0.0000
     36 C          -1.8481   14.5742    1.6818 C.3     1  UNL1        0.0000
     37 H          -1.4965   14.6066    0.6552 H       1  UNL1        0.0000
     38 H          -2.5919   15.3578    1.7892 H       1  UNL1        0.0000
     39 H          -2.3525   13.6246    1.8300 H       1  UNL1        0.0000
     40 C          -0.7829   16.5088    3.7536 C.3     1  UNL1        0.0000
     41 H          -1.6759   16.5156    4.3674 H       1  UNL1        0.0000
     42 H          -0.9218   17.2500    2.9710 H       1  UNL1        0.0000
     43 H           0.0432   16.8430    4.3698 H       1  UNL1        0.0000
@<TRIPOS>BOND
     1    20    18    1
     2    19    18    1
     3    37    36    1
     4    21    18    1
     5    18    12    1
     6    35    32    1
     7    36    38    1
     8    36    39    1
     9    36     1    1
    10    34    32    1
    11    17    14    1
    12    32    33    1
    13    32     1    1
    14    16    14    1
    15    12    14    1
    16    12    13    1
    17    12     4    1
    18    14    15    1
    19     6     5    1
    20     1    40    1
    21     1     2    1
    22    42    40    1
    23     5     4   ar
    24     5     7   ar
    25     4     3   ar
    26    40    41    1
    27    40    43    1
    28     8     7    1
    29     2     3    1
    30     7     9   ar
    31     3    11   ar
    32    25    24    1
    33     9    11   ar
    34     9    10    1
    35    11    22    1
    36    24    27    1
    37    24    22    1
    38    24    26    1
    39    23    22    1
    40    22    28    1
    41    28    29    1
    42    28    31    1
    43    28    30    1
