@<TRIPOS>MOLECULE
2
 43 43 0 0 0
SMALL
GASTEIGER

@<TRIPOS>ATOM
      1 SI         15.2430    9.1461   22.9207 Si      1  UNL1        0.0000
      2 N          13.9023    9.2661   21.8202 N.pl3   1  UNL1        0.0000
      3 C          12.7858    8.4612   22.0785 C.ar    1  UNL1        0.0000
      4 C          11.6816    8.9486   22.8073 C.ar    1  UNL1        0.0000
      5 C          10.6180    8.1059   23.0878 C.ar    1  UNL1        0.0000
      6 H           9.7854    8.4724   23.6683 H       1  UNL1        0.0000
      7 C          10.5993    6.7955   22.6521 C.ar    1  UNL1        0.0000
      8 H           9.7637    6.1523   22.8869 H       1  UNL1        0.0000
      9 C          11.6656    6.3191   21.9175 C.ar    1  UNL1        0.0000
     10 H          11.6556    5.2938   21.5777 H       1  UNL1        0.0000
     11 C          12.7538    7.1258   21.6246 C.ar    1  UNL1        0.0000
     12 C          11.6508   10.3727   23.3113 C.3     1  UNL1        0.0000
     13 H          12.3559   10.9490   22.6976 H       1  UNL1        0.0000
     14 C          10.2585   10.9977   23.1929 C.3     1  UNL1        0.0000
     15 H           9.8321   10.8178   22.2101 H       1  UNL1        0.0000
     16 H          10.3144   12.0712   23.3562 H       1  UNL1        0.0000
     17 H           9.5830   10.5913   23.9424 H       1  UNL1        0.0000
     18 C          12.0954   10.4318   24.7753 C.3     1  UNL1        0.0000
     19 H          11.4324    9.8288   25.3935 H       1  UNL1        0.0000
     20 H          12.0636   11.4578   25.1372 H       1  UNL1        0.0000
     21 H          13.1044   10.0513   24.8854 H       1  UNL1        0.0000
     22 C          13.9042    6.5392   20.8394 C.3     1  UNL1        0.0000
     23 H          14.5944    7.3555   20.6126 H       1  UNL1        0.0000
     24 C          14.6370    5.4857   21.6738 C.3     1  UNL1        0.0000
     25 H          14.9676    5.9112   22.6161 H       1  UNL1        0.0000
     26 H          15.5047    5.1093   21.1340 H       1  UNL1        0.0000
     27 H          13.9800    4.6461   21.8905 H       1  UNL1        0.0000
     28 C          13.4487    5.9164   19.5168 C.3     1  UNL1        0.0000
     29 H          12.7999    5.0608   19.6874 H       1  UNL1        0.0000
     30 H          14.3140    5.5752   18.9504 H       1  UNL1        0.0000
     31 H          12.9088    6.6380   18.9079 H       1  UNL1        0.0000
     32 C          15.6743   10.9252   23.4837 C.3     1  UNL1        0.0000
     33 H          15.6528   11.6065   22.6386 H       1  UNL1        0.0000
     34 H          16.6707   10.9591   23.9111 H       1  UNL1        0.0000
     35 H          14.9845   11.3046   24.2296 H       1  UNL1        0.0000
     36 C          14.8397    8.0625   24.4525 C.3     1  UNL1        0.0000
     37 H          13.8224    7.6863   24.4140 H       1  UNL1        0.0000
     38 H          14.9520    8.6205   25.3773 H       1  UNL1        0.0000
     39 H          15.5038    7.2061   24.5189 H       1  UNL1        0.0000
     40 C          16.8781    8.4129   22.2255 C.3     1  UNL1        0.0000
     41 H          16.7406    7.4663   21.7148 H       1  UNL1        0.0000
     42 H          17.5676    8.2399   23.0467 H       1  UNL1        0.0000
     43 H          17.3703    9.0972   21.5436 H       1  UNL1        0.0000
@<TRIPOS>BOND
     1    31    28    1
     2    30    28    1
     3    28    29    1
     4    28    22    1
     5    23    22    1
     6    22    11    1
     7    22    24    1
     8    26    24    1
     9    43    40    1
    10    10     9    1
    11    11     9   ar
    12    11     3   ar
    13    24    27    1
    14    24    25    1
    15    41    40    1
    16     2     3    1
    17     2     1    1
    18     9     7   ar
    19     3     4   ar
    20    15    14    1
    21    40     1    1
    22    40    42    1
    23    33    32    1
    24     7     8    1
    25     7     5   ar
    26    13    12    1
    27     4     5   ar
    28     4    12    1
    29     1    32    1
    30     1    36    1
    31     5     6    1
    32    14    12    1
    33    14    16    1
    34    14    17    1
    35    12    18    1
    36    32    34    1
    37    32    35    1
    38    37    36    1
    39    36    39    1
    40    36    38    1
    41    18    21    1
    42    18    20    1
    43    18    19    1
