@<TRIPOS>MOLECULE
1
 11 11 0 0 0
SMALL
GASTEIGER

@<TRIPOS>ATOM
      1 N          11.6606   10.4736   19.9769 N.pl3   1  UNL1       -0.2487
      2 C          10.7906   11.4772   19.9688 C.3     1  UNL1        0.0840
      3 H          11.1403   12.4089   20.3828 H       1  UNL1        0.0584
      4 C           9.5040   11.3719   19.4634 C.2     1  UNL1       -0.0600
      5 H           8.8470   12.2274   19.4767 H       1  UNL1        0.0592
      6 C           9.0835   10.1528   18.9567 C.2     1  UNL1       -0.0626
      7 H           8.0862   10.0282   18.5611 H       1  UNL1        0.0615
      8 C           9.9797    9.0940   18.9790 C.2     1  UNL1       -0.0466
      9 H           9.6998    8.1201   18.6082 H       1  UNL1        0.0630
     10 C          11.2475    9.3062   19.4923 C.2     1  UNL1        0.0121
     11 H          11.9667    8.5041   19.5393 H       1  UNL1        0.0797
@<TRIPOS>BOND
     1     7     6    1
     2     9     8    1
     3     6     8    1
     4     6     4    2
     5     8    10    2
     6     4     5    1
     7     4     2    1
     8    10    11    1
     9    10     1    1
    10     2     1    1
    11     2     3    1
