@<TRIPOS>MOLECULE
2
 43 43 0 0 0
SMALL
GASTEIGER

@<TRIPOS>ATOM
      1 SI         15.9167   12.4130   18.8339 Si      1  UNL1        0.0000
      2 N          14.3144   12.0938   19.4134 N.pl3   1  UNL1        0.0000
      3 C          13.3508   13.0845   19.2181 C.ar    1  UNL1        0.0000
      4 C          13.0344   13.9512   20.2901 C.ar    1  UNL1        0.0000
      5 C          12.1517   14.9995   20.0916 C.ar    1  UNL1        0.0000
      6 H          11.9385   15.6802   20.9020 H       1  UNL1        0.0000
      7 C          11.5338   15.1940   18.8695 C.ar    1  UNL1        0.0000
      8 H          10.8492   16.0178   18.7290 H       1  UNL1        0.0000
      9 C          11.7993   14.3197   17.8353 C.ar    1  UNL1        0.0000
     10 H          11.3066   14.4632   16.8846 H       1  UNL1        0.0000
     11 C          12.6991   13.2754   17.9871 C.ar    1  UNL1        0.0000
     12 C          13.6530   13.7275   21.6514 C.3     1  UNL1        0.0000
     13 H          13.9579   12.6672   21.6880 H       1  UNL1        0.0000
     14 C          12.6708   13.9811   22.7956 C.3     1  UNL1        0.0000
     15 H          12.5191   15.0466   22.9558 H       1  UNL1        0.0000
     16 H          13.0630   13.5584   23.7179 H       1  UNL1        0.0000
     17 H          11.7085   13.5231   22.5861 H       1  UNL1        0.0000
     18 C          14.8937   14.6017   21.8429 C.3     1  UNL1        0.0000
     19 H          15.6449   14.3627   21.0983 H       1  UNL1        0.0000
     20 H          15.3171   14.4414   22.8327 H       1  UNL1        0.0000
     21 H          14.6318   15.6540   21.7448 H       1  UNL1        0.0000
     22 C          12.9742   12.3621   16.8182 C.3     1  UNL1        0.0000
     23 H          13.6836   11.6042   17.1591 H       1  UNL1        0.0000
     24 C          11.7008   11.6541   16.3486 C.3     1  UNL1        0.0000
     25 H          11.2441   11.1039   17.1673 H       1  UNL1        0.0000
     26 H          11.9331   10.9572   15.5447 H       1  UNL1        0.0000
     27 H          10.9717   12.3695   15.9752 H       1  UNL1        0.0000
     28 C          13.5996   13.1413   15.6589 C.3     1  UNL1        0.0000
     29 H          12.8941   13.8647   15.2560 H       1  UNL1        0.0000
     30 H          13.8870   12.4645   14.8557 H       1  UNL1        0.0000
     31 H          14.4815   13.6785   15.9975 H       1  UNL1        0.0000
     32 C          16.1950   14.2790   18.4768 C.3     1  UNL1        0.0000
     33 H          16.4755   14.4392   17.4403 H       1  UNL1        0.0000
     34 H          16.9871   14.6986   19.0895 H       1  UNL1        0.0000
     35 H          15.2927   14.8531   18.6618 H       1  UNL1        0.0000
     36 C          17.0992   11.7596   20.1830 C.3     1  UNL1        0.0000
     37 H          17.3030   12.4864   20.9610 H       1  UNL1        0.0000
     38 H          18.0506   11.4616   19.7569 H       1  UNL1        0.0000
     39 H          16.6472   10.8900   20.6513 H       1  UNL1        0.0000
     40 C          16.5142   11.5379   17.2270 C.3     1  UNL1        0.0000
     41 H          16.6250   10.4690   17.3668 H       1  UNL1        0.0000
     42 H          17.4919   11.9284   16.9579 H       1  UNL1        0.0000
     43 H          15.8609   11.6932   16.3768 H       1  UNL1        0.0000
@<TRIPOS>BOND
     1    30    28    1
     2    29    28    1
     3    26    24    1
     4    28    31    1
     5    28    22    1
     6    27    24    1
     7    24    22    1
     8    24    25    1
     9    43    40    1
    10    22    23    1
    11    22    11    1
    12    10     9    1
    13    42    40    1
    14    40    41    1
    15    40     1    1
    16    33    32    1
    17     9    11   ar
    18     9     7   ar
    19    11     3   ar
    20    32    35    1
    21    32     1    1
    22    32    34    1
    23     8     7    1
    24     1     2    1
    25     1    36    1
    26     7     5   ar
    27     3     2    1
    28     3     4   ar
    29    38    36    1
    30     5     4   ar
    31     5     6    1
    32    36    39    1
    33    36    37    1
    34     4    12    1
    35    19    18    1
    36    12    13    1
    37    12    18    1
    38    12    14    1
    39    21    18    1
    40    18    20    1
    41    17    14    1
    42    14    15    1
    43    14    16    1
