@<TRIPOS>MOLECULE
2
 43 43 0 0 0
SMALL
GASTEIGER

@<TRIPOS>ATOM
      1 SI         -0.3295    9.4416    6.5251 Si      1  UNL1        0.0000
      2 N           0.6146    8.0327    6.1916 N.pl3   1  UNL1        0.0000
      3 C           0.2076    7.0985    5.2440 C.ar    1  UNL1        0.0000
      4 C          -0.2619    5.8479    5.7088 C.ar    1  UNL1        0.0000
      5 C          -0.6251    4.8561    4.8157 C.ar    1  UNL1        0.0000
      6 H          -0.9562    3.8982    5.1866 H       1  UNL1        0.0000
      7 C          -0.5874    5.0761    3.4525 C.ar    1  UNL1        0.0000
      8 H          -0.8745    4.2977    2.7613 H       1  UNL1        0.0000
      9 C          -0.1990    6.3165    2.9897 C.ar    1  UNL1        0.0000
     10 H          -0.2017    6.5025    1.9261 H       1  UNL1        0.0000
     11 C           0.1986    7.3287    3.8518 C.ar    1  UNL1        0.0000
     12 C          -0.3814    5.6018    7.1917 C.3     1  UNL1        0.0000
     13 H          -0.4121    6.5890    7.6742 H       1  UNL1        0.0000
     14 C           0.8573    4.8615    7.7006 C.3     1  UNL1        0.0000
     15 H           1.0072    3.9447    7.1344 H       1  UNL1        0.0000
     16 H           0.7472    4.6072    8.7510 H       1  UNL1        0.0000
     17 H           1.7364    5.5027    7.5804 H       1  UNL1        0.0000
     18 C          -1.6579    4.8510    7.5712 C.3     1  UNL1        0.0000
     19 H          -2.5238    5.3001    7.0900 H       1  UNL1        0.0000
     20 H          -1.8014    4.8918    8.6492 H       1  UNL1        0.0000
     21 H          -1.6049    3.8043    7.2820 H       1  UNL1        0.0000
     22 C           0.5982    8.6524    3.2464 C.3     1  UNL1        0.0000
     23 H           0.9994    9.2762    4.0454 H       1  UNL1        0.0000
     24 C           1.6741    8.4890    2.1679 C.3     1  UNL1        0.0000
     25 H           2.4800    7.8514    2.5195 H       1  UNL1        0.0000
     26 H           2.0874    9.4606    1.9038 H       1  UNL1        0.0000
     27 H           1.2587    8.0463    1.2659 H       1  UNL1        0.0000
     28 C          -0.6224    9.3581    2.6497 C.3     1  UNL1        0.0000
     29 H          -1.0617    8.7564    1.8569 H       1  UNL1        0.0000
     30 H          -0.3329   10.3191    2.2277 H       1  UNL1        0.0000
     31 H          -1.3797    9.5248    3.4104 H       1  UNL1        0.0000
     32 C          -0.0984    9.7755    8.3874 C.3     1  UNL1        0.0000
     33 H          -0.5774    9.0287    9.0084 H       1  UNL1        0.0000
     34 H          -0.5107   10.7400    8.6592 H       1  UNL1        0.0000
     35 H           0.9626    9.7911    8.6317 H       1  UNL1        0.0000
     36 C          -2.1804    9.1577    6.1351 C.3     1  UNL1        0.0000
     37 H          -2.2950    8.4442    5.3250 H       1  UNL1        0.0000
     38 H          -2.6781   10.0775    5.8455 H       1  UNL1        0.0000
     39 H          -2.7063    8.7555    6.9953 H       1  UNL1        0.0000
     40 C           0.2577   11.0852    5.7141 C.3     1  UNL1        0.0000
     41 H           1.3414   11.1628    5.7011 H       1  UNL1        0.0000
     42 H          -0.1170   11.9239    6.2931 H       1  UNL1        0.0000
     43 H          -0.0982   11.2140    4.6985 H       1  UNL1        0.0000
@<TRIPOS>BOND
     1    27    24    1
     2    29    28    1
     3    26    24    1
     4    10     9    1
     5    24    25    1
     6    24    22    1
     7    30    28    1
     8    28    22    1
     9    28    31    1
    10     8     7    1
    11     9     7   ar
    12     9    11   ar
    13    22    11    1
    14    22    23    1
    15     7     5   ar
    16    11     3   ar
    17    43    40    1
    18     5     6    1
    19     5     4   ar
    20     3     4   ar
    21     3     2    1
    22    37    36    1
    23    41    40    1
    24     4    12    1
    25    40    42    1
    26    40     1    1
    27    38    36    1
    28    36     1    1
    29    36    39    1
    30     2     1    1
    31     1    32    1
    32    19    18    1
    33    15    14    1
    34    12    18    1
    35    12    13    1
    36    12    14    1
    37    21    18    1
    38    18    20    1
    39    17    14    1
    40    14    16    1
    41    32    35    1
    42    32    34    1
    43    32    33    1
