@<TRIPOS>MOLECULE
2
 43 43 0 0 0
SMALL
GASTEIGER

@<TRIPOS>ATOM
      1 SI          1.8633    7.7813   10.8673 Si      1  UNL1        0.0000
      2 N           2.6960    7.6938    9.3380 N.pl3   1  UNL1        0.0000
      3 C           4.0939    7.6536    9.3997 C.ar    1  UNL1        0.0000
      4 C           4.8031    6.4453    9.5341 C.ar    1  UNL1        0.0000
      5 C           6.1893    6.4687    9.5672 C.ar    1  UNL1        0.0000
      6 H           6.7346    5.5417    9.6642 H       1  UNL1        0.0000
      7 C           6.8903    7.6552    9.4842 C.ar    1  UNL1        0.0000
      8 H           7.9703    7.6545    9.5059 H       1  UNL1        0.0000
      9 C           6.1958    8.8474    9.3885 C.ar    1  UNL1        0.0000
     10 H           6.7479    9.7736    9.3431 H       1  UNL1        0.0000
     11 C           4.8114    8.8683    9.3645 C.ar    1  UNL1        0.0000
     12 C           4.0824    5.1221    9.6440 C.3     1  UNL1        0.0000
     13 H           3.0210    5.3405    9.7891 H       1  UNL1        0.0000
     14 C           4.2368    4.3128    8.3554 C.3     1  UNL1        0.0000
     15 H           3.8809    4.8913    7.5079 H       1  UNL1        0.0000
     16 H           3.6623    3.3911    8.4168 H       1  UNL1        0.0000
     17 H           5.2814    4.0552    8.1897 H       1  UNL1        0.0000
     18 C           4.5840    4.2848   10.8240 C.3     1  UNL1        0.0000
     19 H           5.5674    3.8690   10.6167 H       1  UNL1        0.0000
     20 H           3.9036    3.4552   11.0061 H       1  UNL1        0.0000
     21 H           4.6536    4.8820   11.7279 H       1  UNL1        0.0000
     22 C           4.0577   10.1781    9.3226 C.3     1  UNL1        0.0000
     23 H           3.0966   10.0053    9.8066 H       1  UNL1        0.0000
     24 C           4.7648   11.3047   10.0765 C.3     1  UNL1        0.0000
     25 H           5.0842   10.9665   11.0596 H       1  UNL1        0.0000
     26 H           4.0834   12.1434   10.2054 H       1  UNL1        0.0000
     27 H           5.6351   11.6647    9.5327 H       1  UNL1        0.0000
     28 C           3.7680   10.5994    7.8811 C.3     1  UNL1        0.0000
     29 H           4.6980   10.7302    7.3317 H       1  UNL1        0.0000
     30 H           3.2222   11.5407    7.8663 H       1  UNL1        0.0000
     31 H           3.1604    9.8320    7.3876 H       1  UNL1        0.0000
     32 C           2.8923    7.0345   12.2964 C.3     1  UNL1        0.0000
     33 H           2.7542    5.9629   12.3823 H       1  UNL1        0.0000
     34 H           2.6044    7.4758   13.2452 H       1  UNL1        0.0000
     35 H           3.9511    7.2257   12.1538 H       1  UNL1        0.0000
     36 C           1.4026    9.5108   11.5767 C.3     1  UNL1        0.0000
     37 H           2.2761   10.0426   11.9431 H       1  UNL1        0.0000
     38 H           0.7349    9.3747   12.4233 H       1  UNL1        0.0000
     39 H           0.8922   10.1539   10.8698 H       1  UNL1        0.0000
     40 C           0.2334    6.8037   10.6925 C.3     1  UNL1        0.0000
     41 H          -0.1829    6.9040    9.6973 H       1  UNL1        0.0000
     42 H          -0.5008    7.1711   11.4001 H       1  UNL1        0.0000
     43 H           0.3725    5.7469   10.8911 H       1  UNL1        0.0000
@<TRIPOS>BOND
     1    29    28    1
     2    31    28    1
     3    15    14    1
     4    30    28    1
     5    28    22    1
     6    17    14    1
     7    14    16    1
     8    14    12    1
     9    22    11    1
    10    22    23    1
    11    22    24    1
    12     2     3    1
    13     2     1    1
    14    10     9    1
    15    11     9   ar
    16    11     3   ar
    17     9     7   ar
    18     3     4   ar
    19     7     8    1
    20     7     5   ar
    21    27    24    1
    22     4     5   ar
    23     4    12    1
    24     5     6    1
    25    12    13    1
    26    12    18    1
    27    41    40    1
    28    24    26    1
    29    24    25    1
    30    19    18    1
    31    40     1    1
    32    40    43    1
    33    40    42    1
    34    18    20    1
    35    18    21    1
    36     1    36    1
    37     1    32    1
    38    39    36    1
    39    36    37    1
    40    36    38    1
    41    35    32    1
    42    32    33    1
    43    32    34    1
