@<TRIPOS>MOLECULE
3
 27 26 0 0 0
SMALL
GASTEIGER

@<TRIPOS>ATOM
      1 SI         -6.6686   11.2386    7.5178 Si      1  UNL1        0.0000
      2 SI         -9.3664    9.9236    7.2974 Si      1  UNL1        0.0000
      3 N          -7.7789   10.2112    6.6907 N.3     1  UNL1        0.0000
      4 C          -6.3866   10.7933    9.3611 C.3     1  UNL1        0.0000
      5 H          -5.5918   11.3907    9.7963 H       1  UNL1        0.0000
      6 H          -7.2875   10.9798    9.9352 H       1  UNL1        0.0000
      7 H          -6.1249    9.7484    9.4934 H       1  UNL1        0.0000
      8 C          -4.9966   11.0359    6.6005 C.3     1  UNL1        0.0000
      9 H          -5.0835   11.3696    5.5654 H       1  UNL1        0.0000
     10 H          -4.6703    9.9947    6.6100 H       1  UNL1        0.0000
     11 H          -4.2108   11.6232    7.0672 H       1  UNL1        0.0000
     12 C          -7.1222   13.1000    7.4746 C.3     1  UNL1        0.0000
     13 H          -7.8720   13.3351    8.2215 H       1  UNL1        0.0000
     14 H          -7.5242   13.3835    6.5074 H       1  UNL1        0.0000
     15 H          -6.2576   13.7265    7.6712 H       1  UNL1        0.0000
     16 C         -10.2780   11.4947    7.9011 C.3     1  UNL1        0.0000
     17 H         -11.3280   11.2956    8.0900 H       1  UNL1        0.0000
     18 H          -9.8415   11.8561    8.8254 H       1  UNL1        0.0000
     19 H         -10.2190   12.2982    7.1749 H       1  UNL1        0.0000
     20 C         -10.4032    9.1825    5.8611 C.3     1  UNL1        0.0000
     21 H         -11.1122    8.4472    6.2276 H       1  UNL1        0.0000
     22 H          -9.7507    8.6857    5.1357 H       1  UNL1        0.0000
     23 H         -10.9711    9.9472    5.3403 H       1  UNL1        0.0000
     24 C          -9.4535    8.6806    8.7570 C.3     1  UNL1        0.0000
     25 H          -9.1799    7.6774    8.4492 H       1  UNL1        0.0000
     26 H          -8.7828    8.9718    9.5572 H       1  UNL1        0.0000
     27 H         -10.4569    8.6352    9.1692 H       1  UNL1        0.0000
@<TRIPOS>BOND
     1    22    20    1
     2    23    20    1
     3     9     8    1
     4    20    21    1
     5    20     2    1
     6    14    12    1
     7     8    10    1
     8     8    11    1
     9     8     1    1
    10     3     2    1
    11     3     1    1
    12    19    16    1
    13     2    16    1
    14     2    24    1
    15    12     1    1
    16    12    15    1
    17    12    13    1
    18     1     4    1
    19    16    17    1
    20    16    18    1
    21    25    24    1
    22    24    27    1
    23    24    26    1
    24     4     7    1
    25     4     5    1
    26     4     6    1
