@<TRIPOS>MOLECULE
3
 27 26 0 0 0
SMALL
GASTEIGER

@<TRIPOS>ATOM
      1 SI         -4.7083   10.5194    2.5394 Si      1  UNL1        0.0000
      2 SI         -7.3159   12.0025    2.7750 Si      1  UNL1        0.0000
      3 N          -6.2788   10.7007    3.2253 N.3     1  UNL1        0.0000
      4 C          -3.7296    9.3079    3.6623 C.3     1  UNL1        0.0000
      5 H          -3.0539    8.6904    3.0791 H       1  UNL1        0.0000
      6 H          -3.1309    9.8356    4.3981 H       1  UNL1        0.0000
      7 H          -4.4176    8.6427    4.1938 H       1  UNL1        0.0000
      8 C          -3.7022   12.1450    2.4428 C.3     1  UNL1        0.0000
      9 H          -3.7172   12.6839    3.3839 H       1  UNL1        0.0000
     10 H          -4.1130   12.8009    1.6834 H       1  UNL1        0.0000
     11 H          -2.6648   11.9551    2.1865 H       1  UNL1        0.0000
     12 C          -4.6837    9.7847    0.7653 C.3     1  UNL1        0.0000
     13 H          -4.8361    8.7105    0.7708 H       1  UNL1        0.0000
     14 H          -5.4600   10.2238    0.1496 H       1  UNL1        0.0000
     15 H          -3.7313    9.9753    0.2803 H       1  UNL1        0.0000
     16 C          -6.7656   13.7169    3.4320 C.3     1  UNL1        0.0000
     17 H          -6.3686   13.6415    4.4391 H       1  UNL1        0.0000
     18 H          -5.9897   14.1425    2.8057 H       1  UNL1        0.0000
     19 H          -7.5917   14.4210    3.4528 H       1  UNL1        0.0000
     20 C          -7.5789   12.2080    0.8873 C.3     1  UNL1        0.0000
     21 H          -8.2955   12.9941    0.6716 H       1  UNL1        0.0000
     22 H          -6.6453   12.4748    0.4046 H       1  UNL1        0.0000
     23 H          -7.9396   11.2963    0.4221 H       1  UNL1        0.0000
     24 C          -9.0158   11.6016    3.5684 C.3     1  UNL1        0.0000
     25 H          -9.3791   10.6246    3.2444 H       1  UNL1        0.0000
     26 H          -9.7693   12.3334    3.2911 H       1  UNL1        0.0000
     27 H          -8.9392   11.6076    4.6566 H       1  UNL1        0.0000
@<TRIPOS>BOND
     1    14    12    1
     2    15    12    1
     3    22    20    1
     4    23    20    1
     5    21    20    1
     6    12    13    1
     7    12     1    1
     8    20     2    1
     9    10     8    1
    10    11     8    1
    11     8     1    1
    12     8     9    1
    13     1     3    1
    14     1     4    1
    15     2     3    1
    16     2    16    1
    17     2    24    1
    18    18    16    1
    19     5     4    1
    20    25    24    1
    21    26    24    1
    22    16    19    1
    23    16    17    1
    24    24    27    1
    25     4     7    1
    26     4     6    1
