@<TRIPOS>MOLECULE
5
 21 20 0 0 0
SMALL
GASTEIGER

@<TRIPOS>ATOM
      1 SI          8.6361    2.2406   13.8105 Si      1  UNL1        0.0000
      2 SI          6.9107    4.6342   13.7943 Si      1  UNL1        0.0000
      3 H           9.4538    2.8012   14.9188 H       1  UNL1        0.0000
      4 H           5.5649    5.0169   13.2587 H       1  UNL1        0.0000
      5 N           7.0624    2.9234   13.6942 N.3     1  UNL1        0.0000
      6 C           9.6791    2.4525   12.2230 C.3     1  UNL1        0.0000
      7 H           9.1111    2.2303   11.3247 H       1  UNL1        0.0000
      8 H          10.5446    1.7978   12.2403 H       1  UNL1        0.0000
      9 H          10.0419    3.4695   12.1350 H       1  UNL1        0.0000
     10 C           8.4876    0.3639   14.1550 C.3     1  UNL1        0.0000
     11 H           8.8698    0.1237   15.1420 H       1  UNL1        0.0000
     12 H           9.0504   -0.2223   13.4366 H       1  UNL1        0.0000
     13 H           7.4463    0.0338   14.1167 H       1  UNL1        0.0000
     14 C           8.1449    5.6114   12.7251 C.3     1  UNL1        0.0000
     15 H           9.1481    5.5260   13.1264 H       1  UNL1        0.0000
     16 H           7.8884    6.6653   12.7026 H       1  UNL1        0.0000
     17 H           8.1672    5.2540   11.7014 H       1  UNL1        0.0000
     18 C           7.0923    5.3146   15.5661 C.3     1  UNL1        0.0000
     19 H           6.3965    4.8381   16.2496 H       1  UNL1        0.0000
     20 H           6.9163    6.3851   15.6036 H       1  UNL1        0.0000
     21 H           8.0947    5.1313   15.9410 H       1  UNL1        0.0000
@<TRIPOS>BOND
     1     7     6    1
     2    17    14    1
     3     9     6    1
     4     6     8    1
     5     6     1    1
     6    16    14    1
     7    14    15    1
     8    14     2    1
     9     4     2    1
    10    12    10    1
    11     5     2    1
    12     5     1    1
    13     2    18    1
    14     1    10    1
    15     1     3    1
    16    13    10    1
    17    10    11    1
    18    18    20    1
    19    18    21    1
    20    18    19    1
