@<TRIPOS>MOLECULE
1
 11 11 0 0 0
SMALL
GASTEIGER

@<TRIPOS>ATOM
      1 N          -0.7298    4.0319    6.9250 N.pl3   1  UNL1       -0.2487
      2 C          -0.9917    4.9549    7.8462 C.3     1  UNL1        0.0840
      3 C           0.5111    3.9537    6.4543 C.2     1  UNL1        0.0121
      4 C          -0.0311    5.8257    8.3355 C.2     1  UNL1       -0.0600
      5 H          -2.0122    4.9930    8.2084 H       1  UNL1        0.0584
      6 C           1.5407    4.7717    6.8944 C.2     1  UNL1       -0.0466
      7 H           0.6749    3.2102    5.6843 H       1  UNL1        0.0797
      8 C           1.2663    5.7277    7.8582 C.2     1  UNL1       -0.0626
      9 H          -0.2924    6.5570    9.0836 H       1  UNL1        0.0592
     10 H           2.5336    4.6535    6.4906 H       1  UNL1        0.0630
     11 H           2.0427    6.3783    8.2316 H       1  UNL1        0.0615
@<TRIPOS>BOND
     1     7     3    1
     2     3     6    2
     3     3     1    1
     4    10     6    1
     5     6     8    1
     6     1     2    1
     7     2     5    1
     8     2     4    1
     9     8    11    1
    10     8     4    2
    11     4     9    1
