@<TRIPOS>MOLECULE
6
 11 11 0 0 0
SMALL
GASTEIGER

@<TRIPOS>ATOM
      1 C          -3.2238    4.9549    5.0282 C.3     1  UNL1        0.0840
      2 C          -4.1844    5.8257    4.5389 C.2     1  UNL1       -0.0600
      3 C          -5.4818    5.7277    5.0163 C.2     1  UNL1       -0.0626
      4 C          -5.7561    4.7718    5.9800 C.2     1  UNL1       -0.0466
      5 C          -4.7265    3.9537    6.4201 C.2     1  UNL1        0.0121
      6 N          -3.4857    4.0319    5.9494 N.pl3   1  UNL1       -0.2487
      7 H          -2.2032    4.9930    4.6661 H       1  UNL1        0.0584
      8 H          -3.9231    6.5570    3.7909 H       1  UNL1        0.0592
      9 H          -6.2581    6.3784    4.6429 H       1  UNL1        0.0615
     10 H          -6.7491    4.6535    6.3838 H       1  UNL1        0.0630
     11 H          -4.8904    3.2102    7.1902 H       1  UNL1        0.0797
@<TRIPOS>BOND
     1     8     2    1
     2     2     3    2
     3     2     1    1
     4     9     3    1
     5     7     1    1
     6     3     4    1
     7     1     6    1
     8     6     5    1
     9     4    10    1
    10     4     5    2
    11     5    11    1
