@<TRIPOS>MOLECULE
1
 9 8 0 0 0
SMALL
GASTEIGER

@<TRIPOS>ATOM
      1 N          -1.8947    1.3309   36.4575 N.3     1  UNL1       -0.2469
      2 C          -1.9648    0.2019   35.5634 C.3     1  UNL1        0.0021
      3 H          -0.9583   -0.0758   35.2001 H       1  UNL1        0.0405
      4 H          -2.5894    0.4219   34.7003 H       1  UNL1        0.0405
      5 H          -2.3706   -0.6885   36.0757 H       1  UNL1        0.0405
      6 C          -1.0517    0.9999   37.5867 C.3     1  UNL1        0.0021
      7 H          -1.5329    0.2444   38.2332 H       1  UNL1        0.0405
      8 H          -0.8474    1.8974   38.1774 H       1  UNL1        0.0405
      9 H          -0.0907    0.5756   37.2467 H       1  UNL1        0.0405
@<TRIPOS>BOND
     1     4     2    1
     2     3     2    1
     3     2     5    1
     4     2     1    1
     5     1     6    1
     6     9     6    1
     7     6     8    1
     8     6     7    1
