@<TRIPOS>MOLECULE
1
 9 8 0 0 0
SMALL
GASTEIGER

@<TRIPOS>ATOM
      1 N           3.3904   12.1540   11.2817 N.3     1  UNL1       -0.2469
      2 C           2.2679   12.2269   12.1847 C.3     1  UNL1        0.0021
      3 H           2.3730   11.4989   13.0097 H       1  UNL1        0.0405
      4 H           1.3340   12.0196   11.6584 H       1  UNL1        0.0405
      5 H           2.1937   13.2278   12.6431 H       1  UNL1        0.0405
      6 C           4.6243   12.3218   12.0088 C.3     1  UNL1        0.0021
      7 H           4.6191   13.2612   12.5890 H       1  UNL1        0.0405
      8 H           5.4749   12.3443   11.3215 H       1  UNL1        0.0405
      9 H           4.7752   11.5030   12.7369 H       1  UNL1        0.0405
@<TRIPOS>BOND
     1     1     6    1
     2     1     2    1
     3     8     6    1
     4     4     2    1
     5     6     7    1
     6     6     9    1
     7     2     5    1
     8     2     3    1
