@<TRIPOS>MOLECULE
1
 9 8 0 0 0
SMALL
GASTEIGER

@<TRIPOS>ATOM
      1 N           5.3292    4.6199   10.7388 N.3     1  UNL1       -0.2469
      2 C           5.9198    4.5245   12.0525 C.3     1  UNL1        0.0021
      3 H           6.2785    5.5115   12.3917 H       1  UNL1        0.0405
      4 H           6.7743    3.8430   12.0343 H       1  UNL1        0.0405
      5 H           5.1877    4.1745   12.8029 H       1  UNL1        0.0405
      6 C           4.3022    5.6294   10.7236 C.3     1  UNL1        0.0021
      7 H           3.4841    5.3775   11.4239 H       1  UNL1        0.0405
      8 H           3.8838    5.7388    9.7218 H       1  UNL1        0.0405
      9 H           4.7026    6.6092   11.0382 H       1  UNL1        0.0405
@<TRIPOS>BOND
     1     8     6    1
     2     6     1    1
     3     6     9    1
     4     6     7    1
     5     1     2    1
     6     4     2    1
     7     2     3    1
     8     2     5    1
