@<TRIPOS>MOLECULE
1
 9 8 0 0 0
SMALL
GASTEIGER

@<TRIPOS>ATOM
      1 N           3.7119   13.4389    8.7703 N.3     1  UNL1       -0.2469
      2 C           3.3621   13.7287    7.3999 C.3     1  UNL1        0.0021
      3 H           2.9560   14.7493    7.3139 H       1  UNL1        0.0405
      4 H           2.5945   13.0333    7.0508 H       1  UNL1        0.0405
      5 H           4.2403   13.6709    6.7325 H       1  UNL1        0.0405
      6 C           4.4916   14.5117    9.3338 C.3     1  UNL1        0.0021
      7 H           5.4855   14.5790    8.8539 H       1  UNL1        0.0405
      8 H           4.6232   14.3653   10.4060 H       1  UNL1        0.0405
      9 H           3.9882   15.4799    9.1827 H       1  UNL1        0.0405
@<TRIPOS>BOND
     1     5     2    1
     2     4     2    1
     3     3     2    1
     4     2     1    1
     5     1     6    1
     6     7     6    1
     7     9     6    1
     8     6     8    1
