@<TRIPOS>MOLECULE
1
 9 8 0 0 0
SMALL
GASTEIGER

@<TRIPOS>ATOM
      1 N           0.3094    4.0744    2.6000 N.3     1  UNL1       -0.2469
      2 C           0.2855    5.3891    3.1962 C.3     1  UNL1        0.0021
      3 H           0.2453    6.1817    2.4273 H       1  UNL1        0.0405
      4 H           1.1687    5.5384    3.8230 H       1  UNL1        0.0405
      5 H          -0.6076    5.5121    3.8319 H       1  UNL1        0.0405
      6 C          -0.9238    3.8217    1.8992 C.3     1  UNL1        0.0021
      7 H          -1.7912    3.9199    2.5741 H       1  UNL1        0.0405
      8 H          -0.9298    2.8143    1.4805 H       1  UNL1        0.0405
      9 H          -1.0696    4.5478    1.0784 H       1  UNL1        0.0405
@<TRIPOS>BOND
     1     9     6    1
     2     8     6    1
     3     6     7    1
     4     6     1    1
     5     3     2    1
     6     1     2    1
     7     2     4    1
     8     2     5    1
