@<TRIPOS>MOLECULE
1
 9 8 0 0 0
SMALL
GASTEIGER

@<TRIPOS>ATOM
      1 N           5.6192    4.3486    7.8870 N.3     1  UNL1       -0.2469
      2 C           6.7048    4.7163    7.0094 C.3     1  UNL1        0.0021
      3 H           6.5599    4.2929    5.9986 H       1  UNL1        0.0405
      4 H           7.6563    4.3563    7.4048 H       1  UNL1        0.0405
      5 H           6.7664    5.8124    6.8910 H       1  UNL1        0.0405
      6 C           4.3611    4.7439    7.3055 C.3     1  UNL1        0.0021
      7 H           4.3130    5.8387    7.1622 H       1  UNL1        0.0405
      8 H           3.5280    4.4400    7.9451 H       1  UNL1        0.0405
      9 H           4.2206    4.2876    6.3078 H       1  UNL1        0.0405
@<TRIPOS>BOND
     1     3     2    1
     2     9     6    1
     3     5     2    1
     4     2     4    1
     5     2     1    1
     6     7     6    1
     7     6     1    1
     8     6     8    1
