@<TRIPOS>MOLECULE
1
 9 8 0 0 0
SMALL
GASTEIGER

@<TRIPOS>ATOM
      1 N          -0.9593    3.9256   36.1058 N.3     1  UNL1       -0.2469
      2 C          -0.7278    5.2660   36.5780 C.3     1  UNL1        0.0021
      3 H           0.1462    5.3002   37.2478 H       1  UNL1        0.0405
      4 H          -1.5955    5.6203   37.1409 H       1  UNL1        0.0405
      5 H          -0.5276    5.9598   35.7406 H       1  UNL1        0.0405
      6 C           0.1869    3.4176   35.3972 C.3     1  UNL1        0.0021
      7 H           0.4750    4.0967   34.5742 H       1  UNL1        0.0405
      8 H          -0.0417    2.4352   34.9751 H       1  UNL1        0.0405
      9 H           1.0619    3.3238   36.0626 H       1  UNL1        0.0405
@<TRIPOS>BOND
     1     7     6    1
     2     8     6    1
     3     6     9    1
     4     6     1    1
     5     5     2    1
     6     1     2    1
     7     2     4    1
     8     2     3    1
