@<TRIPOS>MOLECULE
1
 9 8 0 0 0
SMALL
GASTEIGER

@<TRIPOS>ATOM
      1 N           1.2192    1.3441    2.6948 N.3     1  UNL1       -0.2469
      2 C           1.3195    0.4254    3.8043 C.3     1  UNL1        0.0021
      3 H           0.3204    0.1117    4.1529 H       1  UNL1        0.0405
      4 H           1.8482    0.8882    4.6399 H       1  UNL1        0.0405
      5 H           1.8605   -0.4926    3.5112 H       1  UNL1        0.0405
      6 C           0.6305    0.6809    1.5583 C.3     1  UNL1        0.0021
      7 H           1.2212   -0.2065    1.2645 H       1  UNL1        0.0405
      8 H           0.5754    1.3595    0.7026 H       1  UNL1        0.0405
      9 H          -0.3882    0.3214    1.7890 H       1  UNL1        0.0405
@<TRIPOS>BOND
     1     8     6    1
     2     7     6    1
     3     6     9    1
     4     6     1    1
     5     1     2    1
     6     5     2    1
     7     2     3    1
     8     2     4    1
