@<TRIPOS>MOLECULE
1
 11 11 0 0 0
SMALL
GASTEIGER

@<TRIPOS>ATOM
      1 N          12.4781    5.7388    3.4622 N.pl3   1  UNL1       -0.2487
      2 C          13.4652    5.6215    4.3558 C.3     1  UNL1        0.0840
      3 C          14.4803    4.6908    4.2321 C.2     1  UNL1       -0.0600
      4 C          14.4858    3.8321    3.1397 C.2     1  UNL1       -0.0626
      5 C          13.4599    3.9521    2.2130 C.2     1  UNL1       -0.0466
      6 C          12.4856    4.9132    2.4128 C.2     1  UNL1        0.0121
      7 H          13.4036    6.2991    5.1983 H       1  UNL1        0.0584
      8 H          15.2514    4.6335    4.9840 H       1  UNL1        0.0592
      9 H          15.2609    3.0914    3.0171 H       1  UNL1        0.0615
     10 H          13.4154    3.3093    1.3475 H       1  UNL1        0.0630
     11 H          11.6618    5.0219    1.7163 H       1  UNL1        0.0797
@<TRIPOS>BOND
     1    10     5    1
     2    11     6    1
     3     5     6    2
     4     5     4    1
     5     6     1    1
     6     9     4    1
     7     4     3    2
     8     1     2    1
     9     3     2    1
    10     3     8    1
    11     2     7    1
