@<TRIPOS>MOLECULE
3
 27 26 0 0 0
SMALL
GASTEIGER

@<TRIPOS>ATOM
      1 SI          9.2936    9.9963    4.5673 Si      1  UNL1        0.0000
      2 SI          9.9245    9.3873    1.5825 Si      1  UNL1        0.0000
      3 N          10.0279    9.0579    3.2830 N.3     1  UNL1        0.0000
      4 C           8.3255   11.5285    3.9502 C.3     1  UNL1        0.0000
      5 C          10.7308   10.5775    5.6879 C.3     1  UNL1        0.0000
      6 C           8.0984    8.8375    5.4990 C.3     1  UNL1        0.0000
      7 C          11.1640    8.2713    0.6317 C.3     1  UNL1        0.0000
      8 C           8.1718    8.9678    0.9292 C.3     1  UNL1        0.0000
      9 C          10.3573   11.1961    1.1305 C.3     1  UNL1        0.0000
     10 H           8.9828   12.2884    3.5447 H       1  UNL1        0.0000
     11 H           7.7816   11.9749    4.7753 H       1  UNL1        0.0000
     12 H           7.6034   11.2699    3.1842 H       1  UNL1        0.0000
     13 H          11.3066   11.3833    5.2412 H       1  UNL1        0.0000
     14 H          11.3922    9.7264    5.8427 H       1  UNL1        0.0000
     15 H          10.3802   10.9203    6.6554 H       1  UNL1        0.0000
     16 H           7.2235    8.5881    4.9060 H       1  UNL1        0.0000
     17 H           7.7561    9.2672    6.4343 H       1  UNL1        0.0000
     18 H           8.6411    7.9196    5.7178 H       1  UNL1        0.0000
     19 H          11.2590    8.5758   -0.4079 H       1  UNL1        0.0000
     20 H          10.8268    7.2367    0.6328 H       1  UNL1        0.0000
     21 H          12.1584    8.3172    1.0746 H       1  UNL1        0.0000
     22 H           7.8781    7.9680    1.2383 H       1  UNL1        0.0000
     23 H           8.1321    9.0105   -0.1550 H       1  UNL1        0.0000
     24 H           7.4311    9.6616    1.3127 H       1  UNL1        0.0000
     25 H          10.7349   11.2635    0.1150 H       1  UNL1        0.0000
     26 H          11.1127   11.6033    1.7941 H       1  UNL1        0.0000
     27 H           9.4835   11.8339    1.1940 H       1  UNL1        0.0000
@<TRIPOS>BOND
     1    19     7    1
     2    23     8    1
     3    25     9    1
     4     7    20    1
     5     7    21    1
     6     7     2    1
     7     8    22    1
     8     8    24    1
     9     8     2    1
    10     9    27    1
    11     9     2    1
    12     9    26    1
    13     2     3    1
    14    12     4    1
    15     3     1    1
    16    10     4    1
    17     4     1    1
    18     4    11    1
    19     1     6    1
    20     1     5    1
    21    16     6    1
    22    13     5    1
    23     6    18    1
    24     6    17    1
    25     5    14    1
    26     5    15    1
