@<TRIPOS>MOLECULE
1
 35 36 0 0 0
SMALL
GASTEIGER

@<TRIPOS>ATOM
      1 N          11.8737   12.0874    9.8139 N.3     1  UNL1       -0.2337
      2 C          10.6288   12.8288    9.7665 C.3     1  UNL1        0.0257
      3 H           9.7701   12.1510    9.8842 H       1  UNL1        0.0477
      4 C          10.5077   13.5216    8.4005 C.3     1  UNL1       -0.0360
      5 H          10.5194   12.7609    7.6116 H       1  UNL1        0.0281
      6 H          11.3867   14.1679    8.2886 H       1  UNL1        0.0281
      7 C           9.2293   14.3501    8.3032 C.3     1  UNL1       -0.0516
      8 H           9.1833   14.8471    7.3315 H       1  UNL1        0.0266
      9 H           8.3611   13.6894    8.3789 H       1  UNL1        0.0266
     10 C           9.1726   15.3862    9.4211 C.3     1  UNL1       -0.0530
     11 H          10.0069   16.0815    9.3138 H       1  UNL1        0.0265
     12 H           8.2436   15.9569    9.3524 H       1  UNL1        0.0265
     13 C           9.2683   14.7022   10.7800 C.3     1  UNL1       -0.0516
     14 H           8.4049   14.0445   10.9158 H       1  UNL1        0.0266
     15 H           9.2435   15.4498   11.5754 H       1  UNL1        0.0266
     16 C          10.5550   13.8878   10.8793 C.3     1  UNL1       -0.0360
     17 H          11.4306   14.5370   10.7788 H       1  UNL1        0.0281
     18 H          10.6059   13.3909   11.8508 H       1  UNL1        0.0281
     19 C          11.7713   10.7060   10.2398 C.3     1  UNL1        0.0257
     20 H          12.7951   10.2980   10.2153 H       1  UNL1        0.0477
     21 C          11.2500   10.5462   11.6824 C.3     1  UNL1       -0.0360
     22 H          11.8348   11.1881   12.3462 H       1  UNL1        0.0281
     23 H          10.2067   10.8640   11.7353 H       1  UNL1        0.0281
     24 C          11.3538    9.0884   12.1219 C.3     1  UNL1       -0.0516
     25 H          12.4018    8.7799   12.1071 H       1  UNL1        0.0266
     26 H          10.9891    8.9824   13.1459 H       1  UNL1        0.0266
     27 C          10.5465    8.1894   11.1896 C.3     1  UNL1       -0.0530
     28 H           9.4885    8.4521   11.2618 H       1  UNL1        0.0265
     29 H          10.6521    7.1461   11.4938 H       1  UNL1        0.0265
     30 C          11.0119    8.3588    9.7463 C.3     1  UNL1       -0.0516
     31 H          10.4054    7.7346    9.0859 H       1  UNL1        0.0266
     32 H          12.0490    8.0261    9.6607 H       1  UNL1        0.0266
     33 C          10.9067    9.8201    9.3177 C.3     1  UNL1       -0.0360
     34 H           9.8605   10.1279    9.3703 H       1  UNL1        0.0281
     35 H          11.2357    9.9379    8.2827 H       1  UNL1        0.0281
@<TRIPOS>BOND
     1     8     7    1
     2     5     4    1
     3    35    33    1
     4     6     4    1
     5     7     9    1
     6     7     4    1
     7     7    10    1
     8     4     2    1
     9    31    30    1
    10    11    10    1
    11    33    34    1
    12    33    30    1
    13    33    19    1
    14    12    10    1
    15    10    13    1
    16    32    30    1
    17    30    27    1
    18     2     1    1
    19     2     3    1
    20     2    16    1
    21     1    19    1
    22    20    19    1
    23    19    21    1
    24    17    16    1
    25    13    16    1
    26    13    14    1
    27    13    15    1
    28    16    18    1
    29    27    28    1
    30    27    29    1
    31    27    24    1
    32    21    23    1
    33    21    24    1
    34    21    22    1
    35    25    24    1
    36    24    26    1
