@<TRIPOS>MOLECULE
1
 19 19 0 0 0
SMALL
GASTEIGER

@<TRIPOS>ATOM
      1 N           9.6160    1.5923    4.6590 N.pl3   1  UNL1       -0.2660
      2 H           8.8966    2.2431    4.3200 H       1  UNL1        0.1699
      3 C           9.9252    0.7153    3.6497 C.ar    1  UNL1        0.0501
      4 C           9.6806    1.0444    2.2936 C.ar    1  UNL1       -0.0279
      5 C          10.0011    0.1390    1.2991 C.ar    1  UNL1       -0.0570
      6 H           9.8213    0.4065    0.2672 H       1  UNL1        0.0621
      7 C          10.5451   -1.0972    1.6011 C.ar    1  UNL1       -0.0611
      8 H          10.7975   -1.7888    0.8116 H       1  UNL1        0.0618
      9 C          10.7455   -1.4405    2.9253 C.ar    1  UNL1       -0.0570
     10 H          11.1426   -2.4146    3.1746 H       1  UNL1        0.0621
     11 C          10.4448   -0.5609    3.9511 C.ar    1  UNL1       -0.0279
     12 C           9.0788    2.3706    1.9234 C.3     1  UNL1       -0.0379
     13 H           8.0770    2.4796    2.3451 H       1  UNL1        0.0278
     14 H           8.9973    2.4551    0.8426 H       1  UNL1        0.0278
     15 H           9.6913    3.1976    2.2839 H       1  UNL1        0.0278
     16 C          10.6056   -1.0115    5.3717 C.3     1  UNL1       -0.0379
     17 H          11.5985   -1.4190    5.5441 H       1  UNL1        0.0278
     18 H           9.8827   -1.8008    5.5814 H       1  UNL1        0.0278
     19 H          10.4404   -0.1712    6.0502 H       1  UNL1        0.0278
@<TRIPOS>BOND
     1     6     5    1
     2     8     7    1
     3    14    12    1
     4     5     7   ar
     5     5     4   ar
     6     7     9   ar
     7    12    15    1
     8    12     4    1
     9    12    13    1
    10     4     3   ar
    11     9    10    1
    12     9    11   ar
    13     3    11   ar
    14     3     1    1
    15    11    16    1
    16     2     1    1
    17    16    17    1
    18    16    18    1
    19    16    19    1
