@<TRIPOS>MOLECULE
1
 9 8 0 0 0
SMALL
GASTEIGER

@<TRIPOS>ATOM
      1 N           7.7412    5.4702    4.2236 N.3     1  UNL1       -0.2469
      2 C           6.5629    4.6657    4.4748 C.3     1  UNL1        0.0021
      3 H           5.6657    5.2853    4.5533 H       1  UNL1        0.0405
      4 H           6.6600    4.0804    5.4113 H       1  UNL1        0.0405
      5 H           6.3991    3.9279    3.6670 H       1  UNL1        0.0405
      6 C           8.8762    4.5797    4.0940 C.3     1  UNL1        0.0021
      7 H           9.8027    5.1450    3.9936 H       1  UNL1        0.0405
      8 H           8.7748    3.9173    3.2115 H       1  UNL1        0.0405
      9 H           8.9709    3.9141    4.9725 H       1  UNL1        0.0405
@<TRIPOS>BOND
     1     8     6    1
     2     5     2    1
     3     7     6    1
     4     6     1    1
     5     6     9    1
     6     1     2    1
     7     2     3    1
     8     2     4    1
