@<TRIPOS>MOLECULE
1
 9 8 0 0 0
SMALL
GASTEIGER

@<TRIPOS>ATOM
      1 N           9.7413    7.7956    3.7109 N.3     1  UNL1       -0.2469
      2 C          10.8763    8.3776    4.3995 C.3     1  UNL1        0.0021
      3 H          10.5546    8.8960    5.3017 H       1  UNL1        0.0405
      4 H          11.4090    9.1023    3.7544 H       1  UNL1        0.0405
      5 H          11.6233    7.6102    4.6820 H       1  UNL1        0.0405
      6 C          10.2247    7.1970    2.4769 C.3     1  UNL1        0.0021
      7 H           9.4421    6.5991    1.9997 H       1  UNL1        0.0405
      8 H          11.0958    6.5401    2.6620 H       1  UNL1        0.0405
      9 H          10.5724    7.9702    1.7637 H       1  UNL1        0.0405
@<TRIPOS>BOND
     1     9     6    1
     2     7     6    1
     3     6     8    1
     4     6     1    1
     5     1     2    1
     6     4     2    1
     7     2     5    1
     8     2     3    1
