@<TRIPOS>MOLECULE
1
 9 8 0 0 0
SMALL
GASTEIGER

@<TRIPOS>ATOM
      1 N           0.0298   -1.9489    0.3212 N.3     1  UNL1       -0.2469
      2 C          -0.4248   -2.1703    1.6761 C.3     1  UNL1        0.0021
      3 C           1.2290   -2.7186    0.0703 C.3     1  UNL1        0.0021
      4 H          -1.3575   -1.6226    1.8588 H       1  UNL1        0.0405
      5 H           0.3246   -1.8664    2.4435 H       1  UNL1        0.0405
      6 H          -0.6326   -3.2421    1.8520 H       1  UNL1        0.0405
      7 H           1.5696   -2.5535   -0.9566 H       1  UNL1        0.0405
      8 H           1.0321   -3.7985    0.1970 H       1  UNL1        0.0405
      9 H           2.0591   -2.4665    0.7654 H       1  UNL1        0.0405
@<TRIPOS>BOND
     1     7     3    1
     2     3     8    1
     3     3     1    1
     4     3     9    1
     5     1     2    1
     6     2     6    1
     7     2     4    1
     8     2     5    1
