@<TRIPOS>MOLECULE
1
 9 8 0 0 0
SMALL
GASTEIGER

@<TRIPOS>ATOM
      1 N           1.6728    1.0001    0.3212 N.3     1  UNL1       -0.2469
      2 C           2.0918    0.7173    1.6762 C.3     1  UNL1        0.0021
      3 H           2.0838   -0.3644    1.8590 H       1  UNL1        0.0405
      4 H           1.4540    1.2144    2.4435 H       1  UNL1        0.0405
      5 H           3.1239    1.0731    1.8520 H       1  UNL1        0.0405
      6 C           1.7399    2.4235    0.0701 C.3     1  UNL1        0.0021
      7 H           1.4267    2.6359   -0.9568 H       1  UNL1        0.0405
      8 H           2.7736    2.7929    0.1969 H       1  UNL1        0.0405
      9 H           1.1065    3.0164    0.7651 H       1  UNL1        0.0405
@<TRIPOS>BOND
     1     7     6    1
     2     6     8    1
     3     6     1    1
     4     6     9    1
     5     1     2    1
     6     2     5    1
     7     2     3    1
     8     2     4    1
