@<TRIPOS>MOLECULE
1
 9 8 0 0 0
SMALL
GASTEIGER

@<TRIPOS>ATOM
      1 N          -1.7027    0.9485    0.3211 N.3     1  UNL1       -0.2469
      2 C          -1.6672    1.4531    1.6759 C.3     1  UNL1        0.0021
      3 H          -0.7267    1.9873    1.8584 H       1  UNL1        0.0405
      4 H          -1.7785    0.6523    2.4434 H       1  UNL1        0.0405
      5 H          -2.4917    2.1689    1.8517 H       1  UNL1        0.0405
      6 C          -2.9689    0.2947    0.0703 C.3     1  UNL1        0.0021
      7 H          -2.9963   -0.0830   -0.9565 H       1  UNL1        0.0405
      8 H          -3.8057    1.0052    0.1969 H       1  UNL1        0.0405
      9 H          -3.1657   -0.5501    0.7655 H       1  UNL1        0.0405
@<TRIPOS>BOND
     1     7     6    1
     2     6     8    1
     3     6     1    1
     4     6     9    1
     5     1     2    1
     6     2     5    1
     7     2     3    1
     8     2     4    1
