@<TRIPOS>MOLECULE
1
 9 8 0 0 0
SMALL
GASTEIGER

@<TRIPOS>ATOM
      1 N           4.4111    9.3982    4.9880 N.3     1  UNL1       -0.2469
      2 C           4.1778    9.8469    6.3366 C.3     1  UNL1        0.0021
      3 C           5.5114    8.4682    4.9222 C.3     1  UNL1        0.0021
      4 H           3.3922   10.6088    6.3478 H       1  UNL1        0.0405
      5 H           5.0918   10.2867    6.7775 H       1  UNL1        0.0405
      6 H           3.8725    9.0138    6.9973 H       1  UNL1        0.0405
      7 H           5.7094    8.1956    3.8782 H       1  UNL1        0.0405
      8 H           5.2928    7.5463    5.4910 H       1  UNL1        0.0405
      9 H           6.4335    8.8973    5.3575 H       1  UNL1        0.0405
@<TRIPOS>BOND
     1     7     3    1
     2     3     1    1
     3     3     9    1
     4     3     8    1
     5     1     2    1
     6     2     4    1
     7     2     5    1
     8     2     6    1
