@<TRIPOS>MOLECULE
1
 9 8 0 0 0
SMALL
GASTEIGER

@<TRIPOS>ATOM
      1 N           2.1549   11.0908    3.8167 N.3     1  UNL1       -0.2469
      2 C           1.0935   10.6923    4.7077 C.3     1  UNL1        0.0021
      3 C           1.9879   12.4533    3.3764 C.3     1  UNL1        0.0021
      4 H           1.2828    9.6781    5.0813 H       1  UNL1        0.0405
      5 H           0.1113   10.7034    4.1991 H       1  UNL1        0.0405
      6 H           1.0101   11.3766    5.5732 H       1  UNL1        0.0405
      7 H           2.8153   12.7348    2.7171 H       1  UNL1        0.0405
      8 H           1.9692   13.1530    4.2329 H       1  UNL1        0.0405
      9 H           1.0361   12.5911    2.8297 H       1  UNL1        0.0405
@<TRIPOS>BOND
     1     7     3    1
     2     9     3    1
     3     3     1    1
     4     3     8    1
     5     1     2    1
     6     5     2    1
     7     2     4    1
     8     2     6    1
