@<TRIPOS>MOLECULE
1
 9 8 0 0 0
SMALL
GASTEIGER

@<TRIPOS>ATOM
      1 N           4.8154   10.8536    2.3097 N.3     1  UNL1       -0.2469
      2 C           6.2290   10.9699    2.5577 C.3     1  UNL1        0.0021
      3 C           4.4956   11.1859    0.9441 C.3     1  UNL1        0.0021
      4 H           6.4383   10.8112    3.6205 H       1  UNL1        0.0405
      5 H           6.5993   11.9739    2.2825 H       1  UNL1        0.0405
      6 H           6.8091   10.2367    1.9640 H       1  UNL1        0.0405
      7 H           3.4251   11.0414    0.7591 H       1  UNL1        0.0405
      8 H           5.0602   10.5531    0.2357 H       1  UNL1        0.0405
      9 H           4.7560   12.2356    0.7145 H       1  UNL1        0.0405
@<TRIPOS>BOND
     1     8     3    1
     2     9     3    1
     3     7     3    1
     4     3     1    1
     5     6     2    1
     6     5     2    1
     7     1     2    1
     8     2     4    1
