@<TRIPOS>MOLECULE
3
 36 35 0 0 0
SMALL
GASTEIGER

@<TRIPOS>ATOM
      1 P           5.1506    4.8881    5.9416 P.3     1  UNL1        0.0000
      2 SI          6.7883    6.2466    8.0996 Si      1  UNL1        0.0000
      3 N           5.3519    5.5019    7.4070 N.3     1  UNL1        0.0000
      4 C           6.3286    5.6226    4.7340 C.3     1  UNL1        0.0000
      5 H           6.3652    6.6928    4.9289 H       1  UNL1        0.0000
      6 H           7.3112    5.2109    4.9707 H       1  UNL1        0.0000
      7 C           5.9859    5.3622    3.2733 C.3     1  UNL1        0.0000
      8 H           5.8480    4.3014    3.0782 H       1  UNL1        0.0000
      9 H           6.7934    5.7181    2.6359 H       1  UNL1        0.0000
     10 H           5.0781    5.8850    2.9844 H       1  UNL1        0.0000
     11 C           5.3483    3.0555    5.7772 C.3     1  UNL1        0.0000
     12 H           4.3652    2.6113    5.9341 H       1  UNL1        0.0000
     13 H           5.6805    2.8240    4.7627 H       1  UNL1        0.0000
     14 C           6.3217    2.5083    6.8118 C.3     1  UNL1        0.0000
     15 H           7.3339    2.8536    6.6183 H       1  UNL1        0.0000
     16 H           6.3171    1.4208    6.7916 H       1  UNL1        0.0000
     17 H           6.0149    2.8397    7.8040 H       1  UNL1        0.0000
     18 C           3.4573    5.2794    5.3452 C.3     1  UNL1        0.0000
     19 H           3.3531    4.9618    4.3056 H       1  UNL1        0.0000
     20 H           2.7670    4.6946    5.9592 H       1  UNL1        0.0000
     21 C           3.1779    6.7658    5.5198 C.3     1  UNL1        0.0000
     22 H           3.3340    7.0345    6.5639 H       1  UNL1        0.0000
     23 H           2.1498    6.9985    5.2502 H       1  UNL1        0.0000
     24 H           3.8416    7.3673    4.9005 H       1  UNL1        0.0000
     25 C           6.6633    6.6537    9.9536 C.3     1  UNL1        0.0000
     26 H           5.6310    6.7431   10.2681 H       1  UNL1        0.0000
     27 H           7.1693    7.5865   10.1840 H       1  UNL1        0.0000
     28 H           7.1141    5.8675   10.5479 H       1  UNL1        0.0000
     29 C           7.0518    7.9118    7.1674 C.3     1  UNL1        0.0000
     30 H           7.7638    7.8144    6.3542 H       1  UNL1        0.0000
     31 H           7.4558    8.6553    7.8463 H       1  UNL1        0.0000
     32 H           6.1273    8.3114    6.7621 H       1  UNL1        0.0000
     33 C           8.3702    5.1872    7.8875 C.3     1  UNL1        0.0000
     34 H           8.2918    4.2645    8.4531 H       1  UNL1        0.0000
     35 H           9.2254    5.7359    8.2695 H       1  UNL1        0.0000
     36 H           8.5866    4.9339    6.8543 H       1  UNL1        0.0000
@<TRIPOS>BOND
     1     9     7    1
     2    10     7    1
     3     8     7    1
     4     7     4    1
     5    19    18    1
     6     4     5    1
     7     4     6    1
     8     4     1    1
     9    13    11    1
    10    24    21    1
    11    23    21    1
    12    18    21    1
    13    18     1    1
    14    18    20    1
    15    21    22    1
    16    11    12    1
    17    11     1    1
    18    11    14    1
    19     1     3    1
    20    30    29    1
    21    15    14    1
    22    32    29    1
    23    16    14    1
    24    14    17    1
    25    36    33    1
    26    29    31    1
    27    29     2    1
    28     3     2    1
    29    33     2    1
    30    33    35    1
    31    33    34    1
    32     2    25    1
    33    25    27    1
    34    25    26    1
    35    25    28    1
