@<TRIPOS>MOLECULE
2
 38 38 0 0 0
SMALL
GASTEIGER

@<TRIPOS>ATOM
      1 SI         20.9255   10.9777   14.2897 Si      1  UNL1        0.0000
      2 N          19.2510   10.9146   14.6305 N.pl3   1  UNL1        0.0000
      3 O          20.8220   12.3321   13.3343 O.3     1  UNL1        0.0000
      4 C          21.7417    9.4942   13.3553 C.3     1  UNL1        0.0000
      5 H          21.4541    9.4555   12.3092 H       1  UNL1        0.0000
      6 H          21.4616    8.5444   13.7991 H       1  UNL1        0.0000
      7 H          22.8257    9.5437   13.3943 H       1  UNL1        0.0000
      8 C          21.9788   11.1790   15.8837 C.3     1  UNL1        0.0000
      9 H          23.0429   11.0494   15.7071 H       1  UNL1        0.0000
     10 H          21.6796   10.4272   16.6081 H       1  UNL1        0.0000
     11 H          21.8301   12.1501   16.3452 H       1  UNL1        0.0000
     12 C          21.8791   13.0970   12.7697 C.3     1  UNL1        0.0000
     13 C          21.2394   14.0410   11.7476 C.3     1  UNL1        0.0000
     14 H          20.8882   13.4769   10.8875 H       1  UNL1        0.0000
     15 H          21.9581   14.7846   11.4130 H       1  UNL1        0.0000
     16 H          20.3920   14.5347   12.2140 H       1  UNL1        0.0000
     17 C          22.9092   12.2129   12.0645 C.3     1  UNL1        0.0000
     18 H          23.4691   11.6284   12.7867 H       1  UNL1        0.0000
     19 H          23.6038   12.8357   11.5063 H       1  UNL1        0.0000
     20 H          22.4125   11.5377   11.3743 H       1  UNL1        0.0000
     21 C          22.5765   13.9181   13.8573 C.3     1  UNL1        0.0000
     22 H          21.8499   14.5344   14.3772 H       1  UNL1        0.0000
     23 H          23.3322   14.5606   13.4123 H       1  UNL1        0.0000
     24 H          23.0556   13.2612   14.5754 H       1  UNL1        0.0000
     25 C          18.7445   10.1900   15.6813 C.ar    1  UNL1        0.0000
     26 C          17.7056   10.7195   16.4697 C.ar    1  UNL1        0.0000
     27 H          17.3001   11.7000   16.2340 H       1  UNL1        0.0000
     28 C          17.2045   10.0283   17.5538 C.ar    1  UNL1        0.0000
     29 H          16.4128   10.4723   18.1419 H       1  UNL1        0.0000
     30 C          17.6957    8.7761   17.9099 C.ar    1  UNL1        0.0000
     31 C          18.7244    8.2474   17.1423 C.ar    1  UNL1        0.0000
     32 H          19.1345    7.2786   17.3955 H       1  UNL1        0.0000
     33 C          19.2426    8.9350   16.0625 C.ar    1  UNL1        0.0000
     34 H          20.0525    8.5039   15.4948 H       1  UNL1        0.0000
     35 C          17.1216    8.0321   19.0795 C.3     1  UNL1        0.0000
     36 H          17.1182    8.6599   19.9695 H       1  UNL1        0.0000
     37 H          17.6986    7.1345   19.2889 H       1  UNL1        0.0000
     38 H          16.0910    7.7391   18.8764 H       1  UNL1        0.0000
@<TRIPOS>BOND
     1    14    13    1
     2    20    17    1
     3    15    13    1
     4    19    17    1
     5    13    16    1
     6    13    12    1
     7    17    12    1
     8    17    18    1
     9     5     4    1
    10    12     3    1
    11    12    21    1
    12     3     1    1
    13     4     7    1
    14     4     6    1
    15     4     1    1
    16    23    21    1
    17    21    22    1
    18    21    24    1
    19     1     2    1
    20     1     8    1
    21     2    25    1
    22    34    33    1
    23    25    33   ar
    24    25    26   ar
    25     9     8    1
    26     8    11    1
    27     8    10    1
    28    33    31   ar
    29    27    26    1
    30    26    28   ar
    31    31    32    1
    32    31    30   ar
    33    28    30   ar
    34    28    29    1
    35    30    35    1
    36    38    35    1
    37    35    37    1
    38    35    36    1
