@<TRIPOS>MOLECULE
3
 38 38 0 0 0
SMALL
GASTEIGER

@<TRIPOS>ATOM
      1 SI          5.5694    0.6191    4.9505 Si      1  UNL1        0.0000
      2 O           5.8696   -0.3662    3.6330 O.3     1  UNL1        0.0000
      3 N           7.2142    0.8859    5.2947 N.pl3   1  UNL1        0.0000
      4 C           4.5904   -0.2118    6.3785 C.3     1  UNL1        0.0000
      5 H           3.5170   -0.2132    6.2199 H       1  UNL1        0.0000
      6 H           4.7796    0.3448    7.2915 H       1  UNL1        0.0000
      7 H           4.9046   -1.2360    6.5537 H       1  UNL1        0.0000
      8 C           4.5405    2.1984    4.5394 C.3     1  UNL1        0.0000
      9 H           4.8461    2.6885    3.6209 H       1  UNL1        0.0000
     10 H           4.6526    2.9165    5.3461 H       1  UNL1        0.0000
     11 H           3.4800    1.9777    4.4603 H       1  UNL1        0.0000
     12 C           8.6510    3.0000   10.4058 C.3     1  UNL1        0.0000
     13 H           8.0935    2.5106   11.2022 H       1  UNL1        0.0000
     14 H           8.4732    4.0715   10.4600 H       1  UNL1        0.0000
     15 H           9.7125    2.8220   10.5825 H       1  UNL1        0.0000
     16 C           4.9310   -0.8481    2.6679 C.3     1  UNL1        0.0000
     17 C           4.6391    0.2416    1.6320 C.3     1  UNL1        0.0000
     18 H           4.1164    1.0737    2.0926 H       1  UNL1        0.0000
     19 H           4.0214   -0.1635    0.8347 H       1  UNL1        0.0000
     20 H           5.5747    0.5964    1.2065 H       1  UNL1        0.0000
     21 C           3.6303   -1.2858    3.3420 C.3     1  UNL1        0.0000
     22 H           3.8425   -1.9798    4.1494 H       1  UNL1        0.0000
     23 H           2.9813   -1.7710    2.6172 H       1  UNL1        0.0000
     24 H           3.1105   -0.4255    3.7521 H       1  UNL1        0.0000
     25 C           5.5898   -2.0478    1.9773 C.3     1  UNL1        0.0000
     26 H           6.4600   -1.7145    1.4148 H       1  UNL1        0.0000
     27 H           4.8901   -2.5278    1.2972 H       1  UNL1        0.0000
     28 H           5.9156   -2.7621    2.7288 H       1  UNL1        0.0000
     29 C           7.5680    1.4143    6.5296 C.ar    1  UNL1        0.0000
     30 C           7.6900    0.5838    7.6509 C.ar    1  UNL1        0.0000
     31 H           7.4815   -0.4711    7.5285 H       1  UNL1        0.0000
     32 C           8.0322    1.0960    8.8862 C.ar    1  UNL1        0.0000
     33 H           8.1217    0.4287    9.7327 H       1  UNL1        0.0000
     34 C           8.2516    2.4577    9.0659 C.ar    1  UNL1        0.0000
     35 C           8.0891    3.2917    7.9683 C.ar    1  UNL1        0.0000
     36 H           8.2251    4.3585    8.0869 H       1  UNL1        0.0000
     37 C           7.7467    2.7857    6.7275 C.ar    1  UNL1        0.0000
     38 H           7.6005    3.4574    5.8949 H       1  UNL1        0.0000
@<TRIPOS>BOND
     1    19    17    1
     2    20    17    1
     3    27    25    1
     4    26    25    1
     5    17    18    1
     6    17    16    1
     7    25    16    1
     8    25    28    1
     9    23    21    1
    10    16    21    1
    11    16     2    1
    12    21    24    1
    13    21    22    1
    14     9     8    1
    15     2     1    1
    16    11     8    1
    17     8     1    1
    18     8    10    1
    19     1     3    1
    20     1     4    1
    21     3    29    1
    22    38    37    1
    23     5     4    1
    24     4     7    1
    25     4     6    1
    26    29    37   ar
    27    29    30   ar
    28    37    35   ar
    29    31    30    1
    30    30    32   ar
    31    35    36    1
    32    35    34   ar
    33    32    34   ar
    34    32    33    1
    35    34    12    1
    36    12    14    1
    37    12    15    1
    38    12    13    1
