@<TRIPOS>MOLECULE
3
 38 38 0 0 0
SMALL
GASTEIGER

@<TRIPOS>ATOM
      1 SI         10.8274    1.6586    4.3609 Si      1  UNL1        0.0000
      2 O           9.3887    2.0667    3.6187 O.3     1  UNL1        0.0000
      3 N          10.3869    0.0350    4.6153 N.pl3   1  UNL1        0.0000
      4 C          11.1926    2.6060    5.9904 C.3     1  UNL1        0.0000
      5 H          11.6288    3.5867    5.8322 H       1  UNL1        0.0000
      6 H          11.9042    2.0262    6.5707 H       1  UNL1        0.0000
      7 H          10.3031    2.7279    6.6008 H       1  UNL1        0.0000
      8 C          12.3947    1.9559    3.2765 C.3     1  UNL1        0.0000
      9 H          12.2817    1.6199    2.2508 H       1  UNL1        0.0000
     10 H          13.2349    1.4191    3.7065 H       1  UNL1        0.0000
     11 H          12.6726    3.0056    3.2528 H       1  UNL1        0.0000
     12 C          13.3145   -3.0801    8.4033 C.3     1  UNL1        0.0000
     13 H          13.1307   -2.7367    9.4187 H       1  UNL1        0.0000
     14 H          14.3845   -3.0465    8.2085 H       1  UNL1        0.0000
     15 H          12.9935   -4.1205    8.3346 H       1  UNL1        0.0000
     16 C           9.0744    3.2743    2.9221 C.3     1  UNL1        0.0000
     17 C           7.5458    3.3405    2.8355 C.3     1  UNL1        0.0000
     18 H           7.1790    2.5078    2.2380 H       1  UNL1        0.0000
     19 H           7.2294    4.2744    2.3771 H       1  UNL1        0.0000
     20 H           7.1232    3.2633    3.8337 H       1  UNL1        0.0000
     21 C           9.6658    3.2344    1.5100 C.3     1  UNL1        0.0000
     22 H          10.7499    3.2563    1.5508 H       1  UNL1        0.0000
     23 H           9.3182    4.0919    0.9398 H       1  UNL1        0.0000
     24 H           9.3444    2.3245    1.0092 H       1  UNL1        0.0000
     25 C           9.6076    4.4938    3.6748 C.3     1  UNL1        0.0000
     26 H           9.2753    4.4709    4.7080 H       1  UNL1        0.0000
     27 H           9.2477    5.4062    3.2058 H       1  UNL1        0.0000
     28 H          10.6931    4.5003    3.6610 H       1  UNL1        0.0000
     29 C          11.1109   -0.7288    5.5191 C.ar    1  UNL1        0.0000
     30 C          12.2846   -1.4012    5.1643 C.ar    1  UNL1        0.0000
     31 H          12.6504   -1.3217    4.1512 H       1  UNL1        0.0000
     32 C          12.9864   -2.1482    6.0916 C.ar    1  UNL1        0.0000
     33 H          13.8868   -2.6644    5.7862 H       1  UNL1        0.0000
     34 C          12.5641   -2.2412    7.4121 C.ar    1  UNL1        0.0000
     35 C          11.4255   -1.5351    7.7820 C.ar    1  UNL1        0.0000
     36 H          11.0955   -1.5612    8.8118 H       1  UNL1        0.0000
     37 C          10.7168   -0.7892    6.8606 C.ar    1  UNL1        0.0000
     38 H           9.8591   -0.2007    7.1624 H       1  UNL1        0.0000
@<TRIPOS>BOND
     1    23    21    1
     2    24    21    1
     3    21    22    1
     4    21    16    1
     5    18    17    1
     6     9     8    1
     7    19    17    1
     8    17    16    1
     9    17    20    1
    10    16     2    1
    11    16    25    1
    12    27    25    1
    13    11     8    1
    14     8    10    1
    15     8     1    1
    16     2     1    1
    17    28    25    1
    18    25    26    1
    19    31    30    1
    20     1     3    1
    21     1     4    1
    22     3    29    1
    23    30    29   ar
    24    30    32   ar
    25    29    37   ar
    26    33    32    1
    27     5     4    1
    28     4     6    1
    29     4     7    1
    30    32    34   ar
    31    37    38    1
    32    37    35   ar
    33    34    35   ar
    34    34    12    1
    35    35    36    1
    36    14    12    1
    37    15    12    1
    38    12    13    1
