@<TRIPOS>MOLECULE
2
 38 38 0 0 0
SMALL
GASTEIGER

@<TRIPOS>ATOM
      1 SI         15.3749   10.3187   13.7603 Si      1  UNL1        0.0000
      2 N          15.9457   11.8883   14.1151 N.pl3   1  UNL1        0.0000
      3 O          16.8113    9.8197   13.0654 O.3     1  UNL1        0.0000
      4 C          13.8887   10.1403   12.5289 C.3     1  UNL1        0.0000
      5 H          14.1832   10.1677   11.4857 H       1  UNL1        0.0000
      6 H          13.1685   10.9390   12.6737 H       1  UNL1        0.0000
      7 H          13.3567    9.2067   12.6915 H       1  UNL1        0.0000
      8 C          14.8053    9.3402   15.3152 C.3     1  UNL1        0.0000
      9 H          14.0902    8.5563   15.0817 H       1  UNL1        0.0000
     10 H          14.3154   10.0224   16.0032 H       1  UNL1        0.0000
     11 H          15.6341    8.8914   15.8511 H       1  UNL1        0.0000
     12 C          17.1167    8.5153   12.5812 C.3     1  UNL1        0.0000
     13 C          16.3055    8.2017   11.3203 C.3     1  UNL1        0.0000
     14 H          15.2613    8.0388   11.5654 H       1  UNL1        0.0000
     15 H          16.6967    7.3057   10.8451 H       1  UNL1        0.0000
     16 H          16.3777    9.0306   10.6200 H       1  UNL1        0.0000
     17 C          16.8451    7.4542   13.6482 C.3     1  UNL1        0.0000
     18 H          17.3737    7.7145   14.5617 H       1  UNL1        0.0000
     19 H          17.1919    6.4834   13.3027 H       1  UNL1        0.0000
     20 H          15.7836    7.3873   13.8590 H       1  UNL1        0.0000
     21 C          18.6111    8.5036   12.2454 C.3     1  UNL1        0.0000
     22 H          18.8021    9.0550   11.3298 H       1  UNL1        0.0000
     23 H          18.9657    7.4835   12.1202 H       1  UNL1        0.0000
     24 H          19.1460    8.9803   13.0613 H       1  UNL1        0.0000
     25 C          15.2601   12.7396   14.9412 C.ar    1  UNL1        0.0000
     26 C          15.9360   13.7851   15.5975 C.ar    1  UNL1        0.0000
     27 H          16.9998   13.9153   15.4256 H       1  UNL1        0.0000
     28 C          15.2772   14.6569   16.4422 C.ar    1  UNL1        0.0000
     29 H          15.8403   15.4437   16.9264 H       1  UNL1        0.0000
     30 C          13.9137   14.5433   16.6838 C.ar    1  UNL1        0.0000
     31 C          13.2353   13.5119   16.0464 C.ar    1  UNL1        0.0000
     32 H          12.1731   13.3929   16.2136 H       1  UNL1        0.0000
     33 C          13.8831   12.6328   15.2038 C.ar    1  UNL1        0.0000
     34 H          13.3203   11.8458   14.7284 H       1  UNL1        0.0000
     35 C          13.2062   15.4821   17.6161 C.3     1  UNL1        0.0000
     36 H          12.1637   15.6010   17.3277 H       1  UNL1        0.0000
     37 H          13.6845   16.4594   17.6171 H       1  UNL1        0.0000
     38 H          13.2306   15.0952   18.6362 H       1  UNL1        0.0000
@<TRIPOS>BOND
     1    16    13    1
     2    15    13    1
     3    13    14    1
     4    13    12    1
     5    22    21    1
     6     5     4    1
     7    23    21    1
     8    21    12    1
     9    21    24    1
    10     4     6    1
    11     4     7    1
    12     4     1    1
    13    12     3    1
    14    12    17    1
    15     3     1    1
    16    19    17    1
    17    17    20    1
    18    17    18    1
    19     1     2    1
    20     1     8    1
    21     2    25    1
    22    34    33    1
    23    25    33   ar
    24    25    26   ar
    25     9     8    1
    26    33    31   ar
    27     8    11    1
    28     8    10    1
    29    27    26    1
    30    26    28   ar
    31    31    32    1
    32    31    30   ar
    33    28    30   ar
    34    28    29    1
    35    30    35    1
    36    36    35    1
    37    35    37    1
    38    35    38    1
