@<TRIPOS>MOLECULE
2
 38 38 0 0 0
SMALL
GASTEIGER

@<TRIPOS>ATOM
      1 SI         17.5026   15.2760   12.6597 Si      1  UNL1        0.0000
      2 N          18.4562   14.3119   13.6991 N.pl3   1  UNL1        0.0000
      3 O          16.6319   13.9854   12.0629 O.3     1  UNL1        0.0000
      4 C          18.4455   16.2097   11.2554 C.3     1  UNL1        0.0000
      5 H          18.8008   15.5315   10.4850 H       1  UNL1        0.0000
      6 H          19.3153   16.7264   11.6475 H       1  UNL1        0.0000
      7 H          17.8254   16.9595   10.7744 H       1  UNL1        0.0000
      8 C          16.4057   16.5933   13.5281 C.3     1  UNL1        0.0000
      9 H          15.8602   17.2153   12.8242 H       1  UNL1        0.0000
     10 H          17.0207   17.2552   14.1288 H       1  UNL1        0.0000
     11 H          15.6861   16.1304   14.1973 H       1  UNL1        0.0000
     12 C          15.5054   14.0097   11.1955 C.3     1  UNL1        0.0000
     13 C          15.6031   15.1134   10.1421 C.3     1  UNL1        0.0000
     14 H          15.5532   16.0918   10.6080 H       1  UNL1        0.0000
     15 H          14.7780   15.0192    9.4402 H       1  UNL1        0.0000
     16 H          16.5376   15.0305    9.5960 H       1  UNL1        0.0000
     17 C          15.4656   12.6459   10.4972 C.3     1  UNL1        0.0000
     18 H          16.2444   12.5901    9.7400 H       1  UNL1        0.0000
     19 H          14.5011   12.4885   10.0207 H       1  UNL1        0.0000
     20 H          15.6404   11.8765   11.2488 H       1  UNL1        0.0000
     21 C          14.2318   14.2051   12.0223 C.3     1  UNL1        0.0000
     22 H          14.1664   13.4295   12.7788 H       1  UNL1        0.0000
     23 H          13.3541   14.1588   11.3825 H       1  UNL1        0.0000
     24 H          14.2518   15.1691   12.5208 H       1  UNL1        0.0000
     25 C          19.2206   14.8120   14.7179 C.ar    1  UNL1        0.0000
     26 C          19.6848   16.1360   14.7666 C.ar    1  UNL1        0.0000
     27 H          19.4521   16.7981   13.9476 H       1  UNL1        0.0000
     28 C          20.4320   16.6012   15.8303 C.ar    1  UNL1        0.0000
     29 H          20.7730   17.6278   15.8234 H       1  UNL1        0.0000
     30 C          20.7509   15.7830   16.9055 C.ar    1  UNL1        0.0000
     31 C          20.2958   14.4684   16.8712 C.ar    1  UNL1        0.0000
     32 H          20.5216   13.8116   17.7011 H       1  UNL1        0.0000
     33 C          19.5557   13.9873   15.8108 C.ar    1  UNL1        0.0000
     34 H          19.2323   12.9478   15.8021 H       1  UNL1        0.0000
     35 C          21.5543   16.2851   18.0689 C.3     1  UNL1        0.0000
     36 H          22.4454   15.6742   18.2123 H       1  UNL1        0.0000
     37 H          20.9685   16.2383   18.9870 H       1  UNL1        0.0000
     38 H          21.8633   17.3154   17.9096 H       1  UNL1        0.0000
@<TRIPOS>BOND
     1    15    13    1
     2    16    13    1
     3    18    17    1
     4    19    17    1
     5    13    14    1
     6    13    12    1
     7     5     4    1
     8    17    12    1
     9    17    20    1
    10     7     4    1
    11    12    21    1
    12    12     3    1
    13     4     6    1
    14     4     1    1
    15    23    21    1
    16    21    24    1
    17    21    22    1
    18     3     1    1
    19     1     8    1
    20     1     2    1
    21     9     8    1
    22     8    10    1
    23     8    11    1
    24     2    25    1
    25    27    26    1
    26    25    26   ar
    27    25    33   ar
    28    26    28   ar
    29    34    33    1
    30    33    31   ar
    31    29    28    1
    32    28    30   ar
    33    31    30   ar
    34    31    32    1
    35    30    35    1
    36    38    35    1
    37    35    36    1
    38    35    37    1
