@<TRIPOS>MOLECULE
1
 19 19 0 0 0
SMALL
GASTEIGER

@<TRIPOS>ATOM
      1 N           4.2238    1.8150    5.8204 N.pl3   1  UNL1       -0.2486
      2 N           6.9135    0.4389    8.6896 N.pl3   1  UNL1       -0.3362
      3 C           5.4653    2.3061    5.8966 C.3     1  UNL1        0.0857
      4 H           5.7115    3.0788    5.1809 H       1  UNL1        0.0584
      5 C           6.3844    1.8829    6.8224 C.2     1  UNL1       -0.0389
      6 H           7.3586    2.3392    6.8222 H       1  UNL1        0.0610
      7 C           6.0430    0.8831    7.7590 C.2     1  UNL1        0.0283
      8 C           4.7307    0.3780    7.6525 C.2     1  UNL1       -0.0256
      9 H           4.3694   -0.3873    8.3164 H       1  UNL1        0.0649
     10 C           3.8785    0.8685    6.6954 C.2     1  UNL1        0.0139
     11 H           2.8670    0.4954    6.6179 H       1  UNL1        0.0798
     12 C           8.2496    0.9825    8.7611 C.3     1  UNL1        0.0004
     13 H           8.8094    0.4689    9.5380 H       1  UNL1        0.0428
     14 H           8.2308    2.0495    8.9994 H       1  UNL1        0.0428
     15 H           8.7769    0.8430    7.8144 H       1  UNL1        0.0428
     16 C           6.4988   -0.5370    9.6703 C.3     1  UNL1        0.0004
     17 H           7.3124   -0.7214   10.3664 H       1  UNL1        0.0428
     18 H           6.2356   -1.4849    9.1932 H       1  UNL1        0.0428
     19 H           5.6374   -0.1787   10.2395 H       1  UNL1        0.0428
@<TRIPOS>BOND
     1     4     3    1
     2     1     3    1
     3     1    10    1
     4     3     5    1
     5    11    10    1
     6    10     8    2
     7     6     5    1
     8     5     7    2
     9     8     7    1
    10     8     9    1
    11     7     2    1
    12    15    12    1
    13     2    12    1
    14     2    16    1
    15    12    14    1
    16    12    13    1
    17    18    16    1
    18    16    19    1
    19    16    17    1
