@<TRIPOS>MOLECULE
25
 27 26 0 0 0
SMALL
GASTEIGER

@<TRIPOS>ATOM
      1 C           6.2662    0.8282    4.8444 C.3     1  UNL1        0.0000
      2 H           7.1883    1.1001    4.3407 H       1  UNL1        0.0000
      3 H           6.4071   -0.1726    5.2400 H       1  UNL1        0.0000
      4 H           6.1270    1.4876    5.6997 H       1  UNL1        0.0000
      5 C           3.6541   -0.6194    4.2502 C.3     1  UNL1        0.0000
      6 H           3.2987   -0.4371    5.2593 H       1  UNL1        0.0000
      7 H           4.2000   -1.5578    4.2553 H       1  UNL1        0.0000
      8 H           2.7871   -0.7478    3.6128 H       1  UNL1        0.0000
      9 C           5.5257    0.2917    1.9605 C.3     1  UNL1        0.0000
     10 H           4.7665    0.1941    1.1958 H       1  UNL1        0.0000
     11 H           6.0209   -0.6680    2.0593 H       1  UNL1        0.0000
     12 H           6.2593    1.0072    1.6053 H       1  UNL1        0.0000
     13 C           1.8911    4.1759    2.2932 C.3     1  UNL1        0.0000
     14 H           2.3596    4.9783    2.8558 H       1  UNL1        0.0000
     15 H           0.8190    4.3122    2.3907 H       1  UNL1        0.0000
     16 H           2.1315    4.3091    1.2422 H       1  UNL1        0.0000
     17 C           2.1213    1.3301    1.3537 C.3     1  UNL1        0.0000
     18 H           2.8307    1.5891    0.5765 H       1  UNL1        0.0000
     19 H           1.1244    1.4664    0.9503 H       1  UNL1        0.0000
     20 H           2.2472    0.2782    1.5759 H       1  UNL1        0.0000
     21 C           1.0937    1.8047    4.2226 C.3     1  UNL1        0.0000
     22 H           0.7040    0.8225    3.9732 H       1  UNL1        0.0000
     23 H           0.2496    2.4817    4.3088 H       1  UNL1        0.0000
     24 H           1.5519    1.7373    5.2072 H       1  UNL1        0.0000
     25 N           3.9848    2.3543    3.5135 N.3     1  UNL1        0.0000
     26 SI          4.7676    0.8113    3.6383 Si      1  UNL1        0.0000
     27 SI          2.3515    2.4160    2.9079 Si      1  UNL1        0.0000
@<TRIPOS>BOND
     1    18    17    1
     2    19    17    1
     3    10     9    1
     4    16    13    1
     5    17    20    1
     6    17    27    1
     7    12     9    1
     8     9    11    1
     9     9    26    1
    10    13    15    1
    11    13    14    1
    12    13    27    1
    13    27    25    1
    14    27    21    1
    15    25    26    1
    16     8     5    1
    17    26     5    1
    18    26     1    1
    19    22    21    1
    20    21    23    1
    21    21    24    1
    22     5     7    1
    23     5     6    1
    24     2     1    1
    25     1     3    1
    26     1     4    1
