@<TRIPOS>MOLECULE
25
 27 26 0 0 0
SMALL
GASTEIGER

@<TRIPOS>ATOM
      1 C           6.7708   -4.2113    4.8252 C.3     1  UNL1        0.0000
      2 H           7.6786   -3.9037    4.3152 H       1  UNL1        0.0000
      3 H           6.9393   -5.2224    5.1834 H       1  UNL1        0.0000
      4 H           6.6282   -3.5822    5.7039 H       1  UNL1        0.0000
      5 C           5.9778   -4.7920    1.9609 C.3     1  UNL1        0.0000
      6 H           5.2035   -4.9078    1.2137 H       1  UNL1        0.0000
      7 H           6.4759   -5.7487    2.0723 H       1  UNL1        0.0000
      8 H           6.7034   -4.0844    1.5744 H       1  UNL1        0.0000
      9 C           4.1409   -5.6414    4.2972 C.3     1  UNL1        0.0000
     10 H           3.7955   -5.4326    5.3052 H       1  UNL1        0.0000
     11 H           4.6855   -6.5804    4.3223 H       1  UNL1        0.0000
     12 H           3.2678   -5.7863    3.6713 H       1  UNL1        0.0000
     13 C           2.5493   -3.7250    1.3966 C.3     1  UNL1        0.0000
     14 H           3.2415   -3.4753    0.6007 H       1  UNL1        0.0000
     15 H           1.5435   -3.5915    1.0143 H       1  UNL1        0.0000
     16 H           2.6795   -4.7753    1.6257 H       1  UNL1        0.0000
     17 C           1.6050   -3.2337    4.2921 C.3     1  UNL1        0.0000
     18 H           1.1741   -4.1972    4.0362 H       1  UNL1        0.0000
     19 H           0.7861   -2.5340    4.4303 H       1  UNL1        0.0000
     20 H           2.1042   -3.3382    5.2551 H       1  UNL1        0.0000
     21 C           2.3377   -0.8686    2.3257 C.3     1  UNL1        0.0000
     22 H           2.8639   -0.0606    2.8293 H       1  UNL1        0.0000
     23 H           1.2793   -0.7140    2.5112 H       1  UNL1        0.0000
     24 H           2.4897   -0.7621    1.2550 H       1  UNL1        0.0000
     25 N           4.4807   -2.6802    3.4894 N.3     1  UNL1        0.0000
     26 SI          5.2511   -4.2217    3.6411 Si      1  UNL1        0.0000
     27 SI          2.8314   -2.6246    2.9396 Si      1  UNL1        0.0000
@<TRIPOS>BOND
     1    14    13    1
     2    15    13    1
     3     6     5    1
     4    24    21    1
     5    13    16    1
     6    13    27    1
     7     8     5    1
     8     5     7    1
     9     5    26    1
    10    21    23    1
    11    21    22    1
    12    21    27    1
    13    27    25    1
    14    27    17    1
    15    25    26    1
    16    26     9    1
    17    26     1    1
    18    12     9    1
    19    18    17    1
    20    17    19    1
    21    17    20    1
    22     9    11    1
    23     9    10    1
    24     2     1    1
    25     1     3    1
    26     1     4    1
