@<TRIPOS>MOLECULE
3
 27 26 0 0 0
SMALL
GASTEIGER

@<TRIPOS>ATOM
      1 SI         -5.8576   -0.5740    4.9451 Si      1  UNL1        0.0000
      2 SI         -5.0801    1.3347    7.1429 Si      1  UNL1        0.0000
      3 N          -5.6139    1.0337    5.5278 N.3     1  UNL1        0.0000
      4 C          -6.6442   -0.4579    3.1936 C.3     1  UNL1        0.0000
      5 H          -5.9657   -0.8056    2.4205 H       1  UNL1        0.0000
      6 H          -6.9469    0.5614    2.9406 H       1  UNL1        0.0000
      7 H          -7.5338   -1.0771    3.1372 H       1  UNL1        0.0000
      8 C          -7.0184   -1.6604    6.0081 C.3     1  UNL1        0.0000
      9 H          -8.0324   -1.2786    6.0430 H       1  UNL1        0.0000
     10 H          -6.6539   -1.7304    7.0267 H       1  UNL1        0.0000
     11 H          -7.0682   -2.6677    5.6068 H       1  UNL1        0.0000
     12 C          -4.2303   -1.5866    4.7936 C.3     1  UNL1        0.0000
     13 H          -3.3594   -0.9790    5.0102 H       1  UNL1        0.0000
     14 H          -4.1036   -2.0144    3.8045 H       1  UNL1        0.0000
     15 H          -4.2341   -2.4100    5.4990 H       1  UNL1        0.0000
     16 C          -6.3750    0.8460    8.4773 C.3     1  UNL1        0.0000
     17 H          -6.0169    0.0006    9.0546 H       1  UNL1        0.0000
     18 H          -7.3198    0.5564    8.0314 H       1  UNL1        0.0000
     19 H          -6.5671    1.6529    9.1773 H       1  UNL1        0.0000
     20 C          -3.4773    0.4276    7.6581 C.3     1  UNL1        0.0000
     21 H          -2.6144    0.7429    7.0824 H       1  UNL1        0.0000
     22 H          -3.5858   -0.6442    7.5363 H       1  UNL1        0.0000
     23 H          -3.2537    0.6187    8.7030 H       1  UNL1        0.0000
     24 C          -4.7392    3.2199    7.3143 C.3     1  UNL1        0.0000
     25 H          -4.7912    3.7412    6.3551 H       1  UNL1        0.0000
     26 H          -3.7445    3.3886    7.7142 H       1  UNL1        0.0000
     27 H          -5.4395    3.6987    7.9919 H       1  UNL1        0.0000
@<TRIPOS>BOND
     1     5     4    1
     2     6     4    1
     3     7     4    1
     4     4     1    1
     5    14    12    1
     6    12     1    1
     7    12    13    1
     8    12    15    1
     9     1     3    1
    10     1     8    1
    11     3     2    1
    12    11     8    1
    13     8     9    1
    14     8    10    1
    15    25    24    1
    16    21    20    1
    17     2    24    1
    18     2    20    1
    19     2    16    1
    20    24    26    1
    21    24    27    1
    22    22    20    1
    23    20    23    1
    24    18    16    1
    25    16    17    1
    26    16    19    1
