@<TRIPOS>MOLECULE
3
 41 42 0 0 0
SMALL
GASTEIGER

@<TRIPOS>ATOM
      1 SI         -6.9776    4.7967   13.5387 Si      1  UNL1        0.0000
      2 O          -8.4930    6.0703   15.5182 O.2     1  UNL1        0.0000
      3 N          -5.8424    3.9382   14.5046 N.3     1  UNL1        0.0000
      4 C          -9.6850    7.2787   17.2721 C.3     1  UNL1        0.0000
      5 H          -9.8373    8.3031   17.5988 H       1  UNL1        0.0000
      6 H          -9.2202    6.7118   18.0785 H       1  UNL1        0.0000
      7 H         -10.6537    6.8273   17.0579 H       1  UNL1        0.0000
      8 C          -8.8186    7.2632   16.0615 C.ar    1  UNL1        0.0000
      9 C          -8.2452    8.2696   15.3430 C.ar    1  UNL1        0.0000
     10 H          -8.3282    9.3205   15.5363 H       1  UNL1        0.0000
     11 C          -7.5232    7.6446   14.2988 C.ar    1  UNL1        0.0000
     12 H          -6.9449    8.1281   13.5388 H       1  UNL1        0.0000
     13 C          -7.6981    6.2982   14.4377 C.ar    1  UNL1        0.0000
     14 C          -6.2958    5.5072   11.8959 C.3     1  UNL1        0.0000
     15 H          -5.4144    6.1111   12.0740 H       1  UNL1        0.0000
     16 H          -7.0326    6.1416   11.4142 H       1  UNL1        0.0000
     17 H          -6.0256    4.7267   11.1921 H       1  UNL1        0.0000
     18 C          -8.4908    3.7046   13.1084 C.3     1  UNL1        0.0000
     19 H          -8.2244    2.6555   12.9991 H       1  UNL1        0.0000
     20 H          -8.9409    4.0308   12.1759 H       1  UNL1        0.0000
     21 H          -9.2504    3.7872   13.8782 H       1  UNL1        0.0000
     22 SI         -4.7072    4.7968   15.4704 Si      1  UNL1        0.0000
     23 O          -3.1918    6.0703   13.4910 O.2     1  UNL1        0.0000
     24 C          -1.9995    7.2787   11.7374 C.3     1  UNL1        0.0000
     25 H          -1.8472    8.3030   11.4106 H       1  UNL1        0.0000
     26 H          -2.4643    6.7118   10.9309 H       1  UNL1        0.0000
     27 H          -1.0309    6.8272   11.9516 H       1  UNL1        0.0000
     28 C          -2.8660    7.2632   12.9479 C.ar    1  UNL1        0.0000
     29 C          -3.4393    8.2696   13.6665 C.ar    1  UNL1        0.0000
     30 H          -3.3562    9.3205   13.4732 H       1  UNL1        0.0000
     31 C          -4.1615    7.6447   14.7105 C.ar    1  UNL1        0.0000
     32 H          -4.7399    8.1281   15.4704 H       1  UNL1        0.0000
     33 C          -3.9865    6.2982   14.5717 C.ar    1  UNL1        0.0000
     34 C          -5.3888    5.5068   17.1136 C.3     1  UNL1        0.0000
     35 H          -6.2701    6.1109   16.9356 H       1  UNL1        0.0000
     36 H          -4.6518    6.1410   17.5953 H       1  UNL1        0.0000
     37 H          -5.6590    4.7262   17.8172 H       1  UNL1        0.0000
     38 C          -3.1941    3.7045   15.9005 C.3     1  UNL1        0.0000
     39 H          -3.4606    2.6554   16.0108 H       1  UNL1        0.0000
     40 H          -2.7431    4.0313   16.8326 H       1  UNL1        0.0000
     41 H          -2.4348    3.7864   15.1300 H       1  UNL1        0.0000
@<TRIPOS>BOND
     1    26    24    1
     2    17    14    1
     3    25    24    1
     4    16    14    1
     5    24    27    1
     6    24    28    1
     7    14    15    1
     8    14     1    1
     9    20    18    1
    10    28    23   ar
    11    28    29   ar
    12    19    18    1
    13    18     1    1
    14    18    21    1
    15    30    29    1
    16    23    33   ar
    17     1    13    1
    18     1     3    1
    19    12    11    1
    20    29    31   ar
    21    11    13   ar
    22    11     9   ar
    23    13     2   ar
    24     3    22    1
    25    33    31   ar
    26    33    22    1
    27    31    32    1
    28    41    38    1
    29     9    10    1
    30     9     8   ar
    31    22    38    1
    32    22    34    1
    33     2     8   ar
    34    38    39    1
    35    38    40    1
    36     8     4    1
    37    35    34    1
    38     7     4    1
    39    34    36    1
    40    34    37    1
    41     4     5    1
    42     4     6    1
