@<TRIPOS>MOLECULE
1
 11 11 0 0 0
SMALL
GASTEIGER

@<TRIPOS>ATOM
      1 N           6.7261    7.1021   13.0670 N.pl3   1  UNL1       -0.2487
      2 C           7.2508    7.8782   12.1112 C.3     1  UNL1        0.0840
      3 H           6.5771    8.5877   11.6572 H       1  UNL1        0.0584
      4 C           8.5671    7.7867   11.7014 C.2     1  UNL1       -0.0600
      5 H           8.9320    8.4436   10.9269 H       1  UNL1        0.0592
      6 C           9.4018    6.8449   12.2843 C.2     1  UNL1       -0.0626
      7 H          10.4326    6.7464   11.9842 H       1  UNL1        0.0615
      8 C           8.8621    6.0246   13.2727 C.2     1  UNL1       -0.0466
      9 H           9.4644    5.2736   13.7594 H       1  UNL1        0.0630
     10 C           7.5453    6.1940   13.6283 C.2     1  UNL1        0.0121
     11 H           7.0847    5.5732   14.3964 H       1  UNL1        0.0797
@<TRIPOS>BOND
     1     5     4    1
     2     3     2    1
     3     4     2    1
     4     4     6    2
     5     7     6    1
     6     2     1    1
     7     6     8    1
     8     1    10    1
     9     8    10    2
    10     8     9    1
    11    10    11    1
