@<TRIPOS>MOLECULE
2
 15 14 0 0 0
SMALL
GASTEIGER

@<TRIPOS>ATOM
      1 SI         -1.1053    7.5401   23.1996 Si      1  UNL1        0.0000
      2 N           0.1644    8.3401   24.0744 N.3     1  UNL1        0.0000
      3 H           0.1221    9.3377   23.8605 H       1  UNL1        0.0000
      4 C          -2.7396    7.5911   24.1977 C.3     1  UNL1        0.0000
      5 H          -2.6061    7.2005   25.2013 H       1  UNL1        0.0000
      6 H          -3.5072    6.9973   23.7111 H       1  UNL1        0.0000
      7 H          -3.1193    8.6038   24.2893 H       1  UNL1        0.0000
      8 C          -0.7402    5.7189   22.7613 C.3     1  UNL1        0.0000
      9 H           0.0584    5.6362   22.0330 H       1  UNL1        0.0000
     10 H          -1.6260    5.2640   22.3268 H       1  UNL1        0.0000
     11 H          -0.4613    5.1271   23.6254 H       1  UNL1        0.0000
     12 C          -1.3993    8.4559   21.5433 C.3     1  UNL1        0.0000
     13 H          -0.4678    8.6655   21.0259 H       1  UNL1        0.0000
     14 H          -1.9156    9.4000   21.6874 H       1  UNL1        0.0000
     15 H          -2.0114    7.8539   20.8797 H       1  UNL1        0.0000
@<TRIPOS>BOND
     1    15    12    1
     2    13    12    1
     3    12    14    1
     4    12     1    1
     5     9     8    1
     6    10     8    1
     7     8     1    1
     8     8    11    1
     9     1     2    1
    10     1     4    1
    11     6     4    1
    12     3     2    1
    13     4     7    1
    14     4     5    1
