@<TRIPOS>MOLECULE
1
 9 8 0 0 0
SMALL
GASTEIGER

@<TRIPOS>ATOM
      1 N           8.9968    8.4989    6.7516 N.3     1  UNL1       -0.2469
      2 C           8.9953    9.8237    7.3248 C.3     1  UNL1        0.0021
      3 H           8.9961   10.5726    6.5276 H       1  UNL1        0.0405
      4 H           9.8804    9.9990    7.9703 H       1  UNL1        0.0405
      5 H           8.1050    9.9893    7.9638 H       1  UNL1        0.0405
      6 C           8.9680    7.4975    7.7941 C.3     1  UNL1        0.0021
      7 H           8.0649    7.5948    8.4272 H       1  UNL1        0.0405
      8 H           9.8392    7.5818    8.4739 H       1  UNL1        0.0405
      9 H           8.9704    6.4981    7.3460 H       1  UNL1        0.0405
@<TRIPOS>BOND
     1     3     2    1
     2     1     2    1
     3     1     6    1
     4     2     5    1
     5     2     4    1
     6     9     6    1
     7     6     7    1
     8     6     8    1
