@<TRIPOS>MOLECULE
1
 9 8 0 0 0
SMALL
GASTEIGER

@<TRIPOS>ATOM
      1 N          11.1962    7.4412    4.7858 N.3     1  UNL1       -0.2469
      2 C          11.7857    6.3976    3.9746 C.3     1  UNL1        0.0021
      3 H          11.7847    5.4158    4.4859 H       1  UNL1        0.0405
      4 H          12.8415    6.6328    3.7402 H       1  UNL1        0.0405
      5 H          11.2508    6.2821    3.0248 H       1  UNL1        0.0405
      6 C          11.9038    7.4872    6.0529 C.3     1  UNL1        0.0021
      7 H          11.5446    8.3237    6.6590 H       1  UNL1        0.0405
      8 H          12.9890    7.6259    5.8878 H       1  UNL1        0.0405
      9 H          11.7890    6.5453    6.6286 H       1  UNL1        0.0405
@<TRIPOS>BOND
     1     5     2    1
     2     4     2    1
     3     2     3    1
     4     2     1    1
     5     1     6    1
     6     8     6    1
     7     6     9    1
     8     6     7    1
