@<TRIPOS>MOLECULE
1
 10 9 0 0 0
SMALL
GASTEIGER

@<TRIPOS>ATOM
      1 N           2.8359    5.3888   18.0913 N.3     1  UNL1       -0.3220
      2 C           2.2644    6.6978   18.4120 C.3     1  UNL1       -0.0161
      3 C           2.5552    5.0286   16.6993 C.3     1  UNL1       -0.0161
      4 H           2.3873    4.6917   18.6906 H       1  UNL1        0.1213
      5 H           2.7721    7.4575   17.8176 H       1  UNL1        0.0388
      6 H           2.4210    6.9186   19.4670 H       1  UNL1        0.0388
      7 H           1.1903    6.7358   18.1953 H       1  UNL1        0.0388
      8 H           1.4797    5.0236   16.4905 H       1  UNL1        0.0388
      9 H           2.9682    4.0433   16.4900 H       1  UNL1        0.0388
     10 H           3.0408    5.7504   16.0430 H       1  UNL1        0.0388
@<TRIPOS>BOND
     1    10     3    1
     2     9     3    1
     3     8     3    1
     4     3     1    1
     5     5     2    1
     6     1     2    1
     7     1     4    1
     8     7     2    1
     9     2     6    1
