@<TRIPOS>MOLECULE
1
 10 9 0 0 0
SMALL
GASTEIGER

@<TRIPOS>ATOM
      1 N           9.4040    9.9462   28.1384 N.3     1  UNL1       -0.3220
      2 C           8.2120   10.2405   28.9343 C.3     1  UNL1       -0.0161
      3 C           9.4808    8.5179   27.8236 C.3     1  UNL1       -0.0161
      4 H          10.2272   10.1653   28.7110 H       1  UNL1        0.1213
      5 H           7.3259   10.0492   28.3289 H       1  UNL1        0.0388
      6 H           8.2149   11.2907   29.2247 H       1  UNL1        0.0388
      7 H           8.1666    9.6204   29.8374 H       1  UNL1        0.0388
      8 H           9.4681    7.9055   28.7316 H       1  UNL1        0.0388
      9 H          10.4025    8.3225   27.2777 H       1  UNL1        0.0388
     10 H           8.6364    8.2429   27.1926 H       1  UNL1        0.0388
@<TRIPOS>BOND
     1    10     3    1
     2     9     3    1
     3     3     1    1
     4     3     8    1
     5     1     4    1
     6     1     2    1
     7     5     2    1
     8     2     6    1
     9     2     7    1
