@<TRIPOS>MOLECULE
1
 9 8 0 0 0
SMALL
GASTEIGER

@<TRIPOS>ATOM
      1 N          10.1676   12.6001   24.4770 N.3     1  UNL1       -0.2469
      2 C          10.3237   14.0351   24.5458 C.3     1  UNL1        0.0021
      3 C          10.7824   12.0633   23.2817 C.3     1  UNL1        0.0021
      4 H          11.3886   14.3048   24.5659 H       1  UNL1        0.0405
      5 H           9.8482   14.4101   25.4523 H       1  UNL1        0.0405
      6 H           9.8609   14.5239   23.6817 H       1  UNL1        0.0405
      7 H          10.5790   12.6960   22.4143 H       1  UNL1        0.0405
      8 H          10.3897   11.0660   23.0791 H       1  UNL1        0.0405
      9 H          11.8710   11.9875   23.4160 H       1  UNL1        0.0405
@<TRIPOS>BOND
     1     7     3    1
     2     8     3    1
     3     3     9    1
     4     3     1    1
     5     6     2    1
     6     1     2    1
     7     2     4    1
     8     2     5    1
