@<TRIPOS>MOLECULE
1
 10 9 0 0 0
SMALL
GASTEIGER

@<TRIPOS>ATOM
      1 N          -2.9373   10.3603    5.2505 N.3     1  UNL1       -0.3220
      2 C          -4.2661    9.7466    5.2621 C.3     1  UNL1       -0.0161
      3 C          -2.9257   11.6005    6.0254 C.3     1  UNL1       -0.0161
      4 H          -2.3006    9.7026    5.7099 H       1  UNL1        0.1213
      5 H          -4.6147    9.5682    6.2855 H       1  UNL1        0.0388
      6 H          -4.2237    8.7987    4.7271 H       1  UNL1        0.0388
      7 H          -4.9683   10.4083    4.7554 H       1  UNL1        0.0388
      8 H          -3.5426   12.3428    5.5199 H       1  UNL1        0.0388
      9 H          -1.9065   11.9790    6.0934 H       1  UNL1        0.0388
     10 H          -3.3136   11.4435    7.0384 H       1  UNL1        0.0388
@<TRIPOS>BOND
     1     6     2    1
     2     7     2    1
     3     1     2    1
     4     1     4    1
     5     1     3    1
     6     2     5    1
     7     8     3    1
     8     3     9    1
     9     3    10    1
