@<TRIPOS>MOLECULE
1
 9 8 0 0 0
SMALL
GASTEIGER

@<TRIPOS>ATOM
      1 N           7.2700    4.8665   19.2501 N.3     1  UNL1       -0.2469
      2 C           7.7464    4.9624   20.6118 C.3     1  UNL1        0.0021
      3 C           8.2895    4.3138   18.3814 C.3     1  UNL1        0.0021
      4 H           8.1647    4.0036   20.9421 H       1  UNL1        0.0405
      5 H           6.9173    5.2280   21.2679 H       1  UNL1        0.0405
      6 H           8.5240    5.7305   20.7063 H       1  UNL1        0.0405
      7 H           9.2483    4.8235   18.5247 H       1  UNL1        0.0405
      8 H           7.9877    4.4209   17.3387 H       1  UNL1        0.0405
      9 H           8.4319    3.2453   18.5917 H       1  UNL1        0.0405
@<TRIPOS>BOND
     1     8     3    1
     2     3     7    1
     3     3     9    1
     4     3     1    1
     5     1     2    1
     6     2     6    1
     7     2     4    1
     8     2     5    1
