@<TRIPOS>MOLECULE
1
 9 8 0 0 0
SMALL
GASTEIGER

@<TRIPOS>ATOM
      1 N          -1.0018   10.4129    1.1084 N.3     1  UNL1       -0.2469
      2 C          -1.2752    9.3606    0.1499 C.3     1  UNL1        0.0021
      3 C           0.1888   11.1493    0.7465 C.3     1  UNL1        0.0021
      4 H           1.0279   10.4681    0.5658 H       1  UNL1        0.0405
      5 H           0.4553   11.8344    1.5518 H       1  UNL1        0.0405
      6 H           0.0312   11.7399   -0.1652 H       1  UNL1        0.0405
      7 H          -1.0042    9.6675   -0.8628 H       1  UNL1        0.0405
      8 H          -2.3368    9.1088    0.1673 H       1  UNL1        0.0405
      9 H          -0.6996    8.4607    0.4090 H       1  UNL1        0.0405
@<TRIPOS>BOND
     1     7     2    1
     2     6     3    1
     3     2     8    1
     4     2     9    1
     5     2     1    1
     6     4     3    1
     7     3     1    1
     8     3     5    1
