@<TRIPOS>MOLECULE
1
 15 14 0 0 0
SMALL
GASTEIGER

@<TRIPOS>ATOM
      1 N          11.3538   10.2048   11.8290 N.3     1  UNL1       -0.2508
      2 H          12.3178   10.5445   11.8857 H       1  UNL1        0.1412
      3 C          10.5204   11.2844   11.3494 C.3     1  UNL1        0.0249
      4 C          10.8207   11.5913    9.8628 C.3     1  UNL1       -0.0460
      5 H          10.5963   10.7195    9.2562 H       1  UNL1        0.0248
      6 H          11.8743   11.8350    9.7379 H       1  UNL1        0.0248
      7 H          10.2289   12.4346    9.5122 H       1  UNL1        0.0248
      8 C           9.0475   10.8630   11.4992 C.3     1  UNL1       -0.0460
      9 H           8.9412    9.8169   11.1919 H       1  UNL1        0.0248
     10 H           8.4024   11.4941   10.8886 H       1  UNL1        0.0248
     11 H           8.7627   10.9694   12.5453 H       1  UNL1        0.0248
     12 C          10.7464   12.5773   12.1638 C.3     1  UNL1       -0.0460
     13 H          10.5909   12.3586   13.2179 H       1  UNL1        0.0248
     14 H          10.0568   13.3592   11.8514 H       1  UNL1        0.0248
     15 H          11.7633   12.9420   12.0244 H       1  UNL1        0.0248
@<TRIPOS>BOND
     1     5     4    1
     2     7     4    1
     3     6     4    1
     4     4     3    1
     5    10     8    1
     6     9     8    1
     7     3     8    1
     8     3     1    1
     9     3    12    1
    10     8    11    1
    11     1     2    1
    12    14    12    1
    13    15    12    1
    14    12    13    1
