@<TRIPOS>MOLECULE
1
 11 11 0 0 0
SMALL
GASTEIGER

@<TRIPOS>ATOM
      1 N           8.4435    5.2041    8.2700 N.pl3   1  UNL1       -0.2487
      2 C           7.3243    5.0515    7.5586 C.3     1  UNL1        0.0840
      3 H           7.3334    5.4424    6.5499 H       1  UNL1        0.0584
      4 C           6.2027    4.4065    8.0456 C.2     1  UNL1       -0.0600
      5 H           5.3270    4.3153    7.4229 H       1  UNL1        0.0592
      6 C           6.2297    3.8857    9.3297 C.2     1  UNL1       -0.0626
      7 H           5.3702    3.3784    9.7412 H       1  UNL1        0.0615
      8 C           7.3943    4.0289   10.0646 C.2     1  UNL1       -0.0466
      9 H           7.4746    3.6368   11.0659 H       1  UNL1        0.0630
     10 C           8.4726    4.6883    9.5000 C.2     1  UNL1        0.0121
     11 H           9.3845    4.8266   10.0631 H       1  UNL1        0.0797
@<TRIPOS>BOND
     1     3     2    1
     2     5     4    1
     3     2     4    1
     4     2     1    1
     5     4     6    2
     6     1    10    1
     7     6     7    1
     8     6     8    1
     9    10    11    1
    10    10     8    2
    11     8     9    1
