@<TRIPOS>MOLECULE
1
 11 11 0 0 0
SMALL
GASTEIGER

@<TRIPOS>ATOM
      1 N           8.4745    7.9773    7.2334 N.pl3   1  UNL1       -0.2487
      2 C           8.1580    8.4095    6.0148 C.3     1  UNL1        0.0840
      3 H           8.7008    7.9642    5.1925 H       1  UNL1        0.0584
      4 C           7.1793    9.3610    5.7903 C.2     1  UNL1       -0.0600
      5 H           6.9615    9.6782    4.7831 H       1  UNL1        0.0592
      6 C           6.4975    9.8912    6.8746 C.2     1  UNL1       -0.0626
      7 H           5.7294   10.6374    6.7352 H       1  UNL1        0.0615
      8 C           6.8321    9.4441    8.1416 C.2     1  UNL1       -0.0466
      9 H           6.3382    9.8283    9.0202 H       1  UNL1        0.0630
     10 C           7.8263    8.4889    8.2730 C.2     1  UNL1        0.0121
     11 H           8.1365    8.1400    9.2498 H       1  UNL1        0.0797
@<TRIPOS>BOND
     1     5     4    1
     2     3     2    1
     3     4     2    1
     4     4     6    2
     5     2     1    1
     6     7     6    1
     7     6     8    1
     8     1    10    1
     9     8    10    2
    10     8     9    1
    11    10    11    1
