@<TRIPOS>MOLECULE
1
 16 15 0 0 0
SMALL
GASTEIGER

@<TRIPOS>ATOM
      1 N           1.7912    7.9918    7.1789 N.3     1  UNL1       -0.3165
      2 C           2.7522    6.9031    7.3127 C.3     1  UNL1       -0.0070
      3 C           2.1292    8.8812    6.0718 C.3     1  UNL1       -0.0070
      4 H           1.8588    8.5507    8.0372 H       1  UNL1        0.1219
      5 C           2.4930    6.1351    8.5976 C.3     1  UNL1       -0.0526
      6 H           2.6429    6.2351    6.4520 H       1  UNL1        0.0421
      7 H           3.7846    7.2926    7.3132 H       1  UNL1        0.0421
      8 C           1.1633   10.0520    6.0075 C.3     1  UNL1       -0.0526
      9 H           3.1605    9.2574    6.1811 H       1  UNL1        0.0421
     10 H           2.0793    8.3098    5.1403 H       1  UNL1        0.0421
     11 H           3.2244    5.3408    8.7267 H       1  UNL1        0.0242
     12 H           1.4928    5.7089    8.5514 H       1  UNL1        0.0242
     13 H           2.5420    6.8105    9.4474 H       1  UNL1        0.0242
     14 H           1.4394   10.7281    5.2014 H       1  UNL1        0.0242
     15 H           1.1657   10.5953    6.9484 H       1  UNL1        0.0242
     16 H           0.1590    9.6725    5.8328 H       1  UNL1        0.0242
@<TRIPOS>BOND
     1    10     3    1
     2    14     8    1
     3    16     8    1
     4     8     3    1
     5     8    15    1
     6     3     9    1
     7     3     1    1
     8     6     2    1
     9     1     2    1
    10     1     4    1
    11     2     7    1
    12     2     5    1
    13    12     5    1
    14     5    11    1
    15     5    13    1
