@<TRIPOS>MOLECULE
1
 16 15 0 0 0
SMALL
GASTEIGER

@<TRIPOS>ATOM
      1 N          -2.3586    7.0732    7.8664 N.3     1  UNL1       -0.3165
      2 C          -1.7307    5.0130    9.0378 C.3     1  UNL1       -0.0526
      3 C          -3.0605    8.9299    6.4476 C.3     1  UNL1       -0.0526
      4 C          -3.3197    8.1619    7.7326 C.3     1  UNL1       -0.0070
      5 C          -2.6967    6.1838    8.9735 C.3     1  UNL1       -0.0070
      6 H          -2.4262    6.5143    7.0081 H       1  UNL1        0.1219
      7 H          -3.7279    5.8077    8.8642 H       1  UNL1        0.0421
      8 H          -2.6468    6.7552    9.9049 H       1  UNL1        0.0421
      9 H          -3.2104    8.8299    8.5933 H       1  UNL1        0.0421
     10 H          -4.3520    7.7724    7.7321 H       1  UNL1        0.0421
     11 H          -3.7919    9.7242    6.3186 H       1  UNL1        0.0242
     12 H          -2.0602    9.3561    6.4938 H       1  UNL1        0.0242
     13 H          -3.1095    8.2545    5.5979 H       1  UNL1        0.0242
     14 H          -2.0068    4.3369    9.8438 H       1  UNL1        0.0242
     15 H          -1.7330    4.4698    8.0969 H       1  UNL1        0.0242
     16 H          -0.7264    5.3925    9.2125 H       1  UNL1        0.0242
@<TRIPOS>BOND
     1    13     3    1
     2    11     3    1
     3     3    12    1
     4     3     4    1
     5     6     1    1
     6    10     4    1
     7     4     1    1
     8     4     9    1
     9     1     5    1
    10    15     2    1
    11     7     5    1
    12     5     2    1
    13     5     8    1
    14     2    16    1
    15     2    14    1
