@<TRIPOS>MOLECULE
5
 21 20 0 0 0
SMALL
GASTEIGER

@<TRIPOS>ATOM
      1 SI          6.5615    5.4073   17.8795 Si      1  UNL1        0.0000
      2 H           7.3709    6.2643   18.8069 H       1  UNL1        0.0000
      3 SI          5.8780    5.4399   14.9506 Si      1  UNL1        0.0000
      4 H           6.4061    6.0780   13.7041 H       1  UNL1        0.0000
      5 N           6.7322    6.0787   16.3007 N.3     1  UNL1        0.0000
      6 C           4.7667    5.3972   18.5432 C.3     1  UNL1        0.0000
      7 H           4.2762    6.3464   18.3512 H       1  UNL1        0.0000
      8 H           4.7423    5.2219   19.6141 H       1  UNL1        0.0000
      9 H           4.1746    4.6192   18.0723 H       1  UNL1        0.0000
     10 C           7.2238    3.6250   18.0719 C.3     1  UNL1        0.0000
     11 H           6.6091    2.9021   17.5471 H       1  UNL1        0.0000
     12 H           7.2486    3.3357   19.1177 H       1  UNL1        0.0000
     13 H           8.2349    3.5432   17.6857 H       1  UNL1        0.0000
     14 C           3.9921    5.7466   14.9420 C.3     1  UNL1        0.0000
     15 H           3.4952    5.1808   15.7227 H       1  UNL1        0.0000
     16 H           3.5519    5.4532   13.9938 H       1  UNL1        0.0000
     17 H           3.7638    6.7941   15.1029 H       1  UNL1        0.0000
     18 C           6.0812    3.5545   14.6843 C.3     1  UNL1        0.0000
     19 H           7.1084    3.2315   14.8200 H       1  UNL1        0.0000
     20 H           5.7737    3.2657   13.6837 H       1  UNL1        0.0000
     21 H           5.4687    2.9947   15.3830 H       1  UNL1        0.0000
@<TRIPOS>BOND
     1    20    18    1
     2     4     3    1
     3    16    14    1
     4    18    19    1
     5    18     3    1
     6    18    21    1
     7    14     3    1
     8    14    17    1
     9    14    15    1
    10     3     5    1
    11     5     1    1
    12    11    10    1
    13    13    10    1
    14     1    10    1
    15     1     6    1
    16     1     2    1
    17    10    12    1
    18     9     6    1
    19     7     6    1
    20     6     8    1
