@<TRIPOS>MOLECULE
5
 21 20 0 0 0
SMALL
GASTEIGER

@<TRIPOS>ATOM
      1 SI         10.6569    6.7974   17.9346 Si      1  UNL1        0.0000
      2 H          10.0400    5.4542   17.6999 H       1  UNL1        0.0000
      3 SI         11.0807    9.0115   15.8588 Si      1  UNL1        0.0000
      4 H          10.1876    9.7124   14.8668 H       1  UNL1        0.0000
      5 N          10.1089    7.8855   16.7213 N.3     1  UNL1        0.0000
      6 C          12.5420    6.4882   17.9588 C.3     1  UNL1        0.0000
      7 H          12.8816    6.0295   17.0365 H       1  UNL1        0.0000
      8 H          12.8147    5.8243   18.7727 H       1  UNL1        0.0000
      9 H          13.0955    7.4115   18.0896 H       1  UNL1        0.0000
     10 C          10.2102    7.3336   19.7158 C.3     1  UNL1        0.0000
     11 H          10.7039    8.2588   20.0002 H       1  UNL1        0.0000
     12 H          10.5069    6.5717   20.4301 H       1  UNL1        0.0000
     13 H           9.1383    7.4756   19.8178 H       1  UNL1        0.0000
     14 C          12.4950    8.2471   14.8157 C.3     1  UNL1        0.0000
     15 H          13.2886    7.8617   15.4456 H       1  UNL1        0.0000
     16 H          12.9344    8.9894   14.1562 H       1  UNL1        0.0000
     17 H          12.1405    7.4280   14.1982 H       1  UNL1        0.0000
     18 C          11.8977   10.3423   16.9598 C.3     1  UNL1        0.0000
     19 H          11.1579   10.8485   17.5707 H       1  UNL1        0.0000
     20 H          12.4070   11.0932   16.3643 H       1  UNL1        0.0000
     21 H          12.6290    9.9020   17.6297 H       1  UNL1        0.0000
@<TRIPOS>BOND
     1    16    14    1
     2    17    14    1
     3    14    15    1
     4    14     3    1
     5     4     3    1
     6     3     5    1
     7     3    18    1
     8    20    18    1
     9     5     1    1
    10    18    19    1
    11    18    21    1
    12     7     6    1
    13     2     1    1
    14     1     6    1
    15     1    10    1
    16     6     9    1
    17     6     8    1
    18    10    13    1
    19    10    11    1
    20    10    12    1
