@<TRIPOS>MOLECULE
1
 9 8 0 0 0
SMALL
GASTEIGER

@<TRIPOS>ATOM
      1 N           5.5050    0.8639   10.8010 N.3     1  UNL1       -0.2469
      2 C           5.0758   -0.1501   11.7425 C.3     1  UNL1        0.0021
      3 H           4.2957   -0.7923   11.3079 H       1  UNL1        0.0405
      4 H           4.6872    0.3436   12.6288 H       1  UNL1        0.0405
      5 H           5.9144   -0.8002   12.0273 H       1  UNL1        0.0405
      6 C           6.0529    0.2201    9.6306 C.3     1  UNL1        0.0021
      7 H           6.9415   -0.3753    9.8906 H       1  UNL1        0.0405
      8 H           6.3445    0.9730    8.9038 H       1  UNL1        0.0405
      9 H           5.3295   -0.4691    9.1677 H       1  UNL1        0.0405
@<TRIPOS>BOND
     1     8     6    1
     2     9     6    1
     3     6     7    1
     4     6     1    1
     5     1     2    1
     6     3     2    1
     7     2     5    1
     8     2     4    1
