@<TRIPOS>MOLECULE
10
 41 41 0 0 0
SMALL
GASTEIGER

@<TRIPOS>ATOM
      1 C          -2.0464    4.0168    4.6204 C.ar    1  UNL1        0.0000
      2 C          -3.4110    3.6089    4.6192 C.ar    1  UNL1        0.0000
      3 C          -3.8285    2.5202    5.3712 C.ar    1  UNL1        0.0000
      4 H          -4.8693    2.2306    5.3561 H       1  UNL1        0.0000
      5 C          -2.9179    1.8030    6.1428 C.ar    1  UNL1        0.0000
      6 C          -1.5724    2.1958    6.1465 C.ar    1  UNL1        0.0000
      7 H          -0.8661    1.6328    6.7391 H       1  UNL1        0.0000
      8 C          -1.1475    3.2740    5.4070 C.ar    1  UNL1        0.0000
      9 H          -0.1024    3.5561    5.3989 H       1  UNL1        0.0000
     10 N          -1.6487    5.0708    3.8619 N.pl3   1  UNL1        0.0000
     11 C          -4.3354    4.3472    3.8464 C.1     1  UNL1        0.0000
     12 C          -5.0713    5.0362    3.1733 C.1     1  UNL1        0.0000
     13 SI         -6.2517    6.0393    2.1553 Si      1  UNL1        0.0000
     14 C          -5.2885    6.8015    0.6934 C.3     1  UNL1        0.0000
     15 H          -4.6578    7.6253    1.0156 H       1  UNL1        0.0000
     16 H          -4.6509    6.0662    0.2112 H       1  UNL1        0.0000
     17 H          -5.9659    7.1911   -0.0611 H       1  UNL1        0.0000
     18 C          -7.6323    4.8937    1.5167 C.3     1  UNL1        0.0000
     19 H          -8.1523    4.4128    2.3396 H       1  UNL1        0.0000
     20 H          -8.3691    5.4431    0.9374 H       1  UNL1        0.0000
     21 H          -7.2304    4.1104    0.8812 H       1  UNL1        0.0000
     22 C          -6.9737    7.4229    3.2514 C.3     1  UNL1        0.0000
     23 H          -6.1898    8.0542    3.6596 H       1  UNL1        0.0000
     24 H          -7.6506    8.0610    2.6902 H       1  UNL1        0.0000
     25 H          -7.5287    7.0099    4.0883 H       1  UNL1        0.0000
     26 C          -3.3461    0.6956    6.9058 C.1     1  UNL1        0.0000
     27 C          -3.7169   -0.2541    7.5587 C.1     1  UNL1        0.0000
     28 SI         -4.2892   -1.7088    8.5532 Si      1  UNL1        0.0000
     29 C          -5.6079   -1.1144    9.7971 C.3     1  UNL1        0.0000
     30 H          -6.4593   -0.6759    9.2853 H       1  UNL1        0.0000
     31 H          -5.9771   -1.9330   10.4085 H       1  UNL1        0.0000
     32 H          -5.2044   -0.3599   10.4657 H       1  UNL1        0.0000
     33 C          -2.7914   -2.4437    9.4768 C.3     1  UNL1        0.0000
     34 H          -2.0257   -2.7735    8.7811 H       1  UNL1        0.0000
     35 H          -2.3392   -1.7100   10.1373 H       1  UNL1        0.0000
     36 H          -3.0772   -3.2996   10.0820 H       1  UNL1        0.0000
     37 C          -5.0377   -3.0033    7.3691 C.3     1  UNL1        0.0000
     38 H          -5.8764   -2.5903    6.8167 H       1  UNL1        0.0000
     39 H          -4.3037   -3.3416    6.6440 H       1  UNL1        0.0000
     40 H          -5.3959   -3.8763    7.9076 H       1  UNL1        0.0000
     41 H          -2.4423    5.3902    3.2967 H       1  UNL1        0.0000
@<TRIPOS>BOND
     1    17    14    1
     2    16    14    1
     3    14    15    1
     4    14    13    1
     5    21    18    1
     6    20    18    1
     7    18    13    1
     8    18    19    1
     9    13    12    1
    10    13    22    1
    11    24    22    1
    12    12    11    3
    13    22    23    1
    14    22    25    1
    15    41    10    1
    16    11     2    1
    17    10     1    1
    18     2     1   ar
    19     2     3   ar
    20     1     8   ar
    21     4     3    1
    22     3     5   ar
    23     9     8    1
    24     8     6   ar
    25     5     6   ar
    26     5    26    1
    27     6     7    1
    28    39    37    1
    29    38    37    1
    30    26    27    3
    31    37    40    1
    32    37    28    1
    33    27    28    1
    34    28    33    1
    35    28    29    1
    36    34    33    1
    37    30    29    1
    38    33    36    1
    39    33    35    1
    40    29    31    1
    41    29    32    1
