@<TRIPOS>MOLECULE
10
 41 41 0 0 0
SMALL
GASTEIGER

@<TRIPOS>ATOM
      1 C           1.6266    4.0165    3.3113 C.ar    1  UNL1        0.0000
      2 C           2.9911    3.6084    3.3125 C.ar    1  UNL1        0.0000
      3 C           3.4084    2.5196    2.5605 C.ar    1  UNL1        0.0000
      4 H           4.4491    2.2298    2.5757 H       1  UNL1        0.0000
      5 C           2.4977    1.8027    1.7888 C.ar    1  UNL1        0.0000
      6 C           1.1523    2.1957    1.7850 C.ar    1  UNL1        0.0000
      7 H           0.4459    1.6328    1.1925 H       1  UNL1        0.0000
      8 C           0.7276    3.2740    2.5246 C.ar    1  UNL1        0.0000
      9 H          -0.3175    3.5564    2.5326 H       1  UNL1        0.0000
     10 N           1.2291    5.0705    4.0699 N.pl3   1  UNL1        0.0000
     11 C           3.9160    4.3471    4.0843 C.1     1  UNL1        0.0000
     12 C           4.6515    5.0347    4.7593 C.1     1  UNL1        0.0000
     13 SI          5.8325    6.0378    5.7764 Si      1  UNL1        0.0000
     14 C           4.8700    6.8002    7.2386 C.3     1  UNL1        0.0000
     15 H           4.2392    7.6239    6.9166 H       1  UNL1        0.0000
     16 H           4.2325    6.0649    7.7211 H       1  UNL1        0.0000
     17 H           5.5477    7.1897    7.9929 H       1  UNL1        0.0000
     18 C           7.2132    4.8919    6.4145 C.3     1  UNL1        0.0000
     19 H           7.7328    4.4109    5.5913 H       1  UNL1        0.0000
     20 H           7.9504    5.4411    6.9935 H       1  UNL1        0.0000
     21 H           6.8113    4.1086    7.0499 H       1  UNL1        0.0000
     22 C           6.5545    7.4213    4.6801 C.3     1  UNL1        0.0000
     23 H           5.7706    8.0529    4.2722 H       1  UNL1        0.0000
     24 H           7.2317    8.0593    5.2411 H       1  UNL1        0.0000
     25 H           7.1092    7.0083    3.8430 H       1  UNL1        0.0000
     26 C           2.9261    0.6947    1.0267 C.1     1  UNL1        0.0000
     27 C           3.2978   -0.2545    0.3735 C.1     1  UNL1        0.0000
     28 SI          3.8715   -1.7089   -0.6206 Si      1  UNL1        0.0000
     29 C           5.1907   -1.1136   -1.8635 C.3     1  UNL1        0.0000
     30 H           6.0413   -0.6743   -1.3511 H       1  UNL1        0.0000
     31 H           5.5611   -1.9320   -2.4745 H       1  UNL1        0.0000
     32 H           4.7871   -0.3595   -2.5325 H       1  UNL1        0.0000
     33 C           2.3750   -2.4453   -1.5451 C.3     1  UNL1        0.0000
     34 H           1.6091   -2.7758   -0.8499 H       1  UNL1        0.0000
     35 H           1.9225   -1.7119   -2.2059 H       1  UNL1        0.0000
     36 H           2.6620   -3.3008   -2.1502 H       1  UNL1        0.0000
     37 C           4.6202   -3.0026    0.5643 C.3     1  UNL1        0.0000
     38 H           5.4580   -2.5887    1.1174 H       1  UNL1        0.0000
     39 H           3.8859   -3.3417    1.2887 H       1  UNL1        0.0000
     40 H           4.9798   -3.8753    0.0261 H       1  UNL1        0.0000
     41 H           2.0227    5.3898    4.6352 H       1  UNL1        0.0000
@<TRIPOS>BOND
     1    32    29    1
     2    31    29    1
     3    35    33    1
     4    36    33    1
     5    29    30    1
     6    29    28    1
     7    33    34    1
     8    33    28    1
     9    28    27    1
    10    28    37    1
    11    40    37    1
    12    27    26    3
    13    37    38    1
    14    37    39    1
    15    26     5    1
    16     7     6    1
    17     6     5   ar
    18     6     8   ar
    19     5     3   ar
    20     8     9    1
    21     8     1   ar
    22     3     4    1
    23     3     2   ar
    24     1     2   ar
    25     1    10    1
    26     2    11    1
    27    25    22    1
    28    10    41    1
    29    11    12    3
    30    23    22    1
    31    22    24    1
    32    22    13    1
    33    12    13    1
    34    19    18    1
    35    13    18    1
    36    13    14    1
    37    18    20    1
    38    18    21    1
    39    15    14    1
    40    14    16    1
    41    14    17    1
