@<TRIPOS>MOLECULE
1
 31 31 0 0 0
SMALL
GASTEIGER

@<TRIPOS>ATOM
      1 N          -6.8091    6.3720   -5.8087 N.pl3   1  UNL1       -0.2660
      2 C          -6.6806    6.7554   -7.1572 C.ar    1  UNL1        0.0512
      3 C          -7.8094    7.1057   -7.9150 C.ar    1  UNL1       -0.0222
      4 C          -7.6490    7.4113   -9.2601 C.ar    1  UNL1       -0.0565
      5 H          -8.5135    7.6612   -9.8560 H       1  UNL1        0.0621
      6 C          -6.4044    7.3802   -9.8578 C.ar    1  UNL1       -0.0611
      7 H          -6.3005    7.6075  -10.9082 H       1  UNL1        0.0618
      8 C          -5.2927    7.0550   -9.1043 C.ar    1  UNL1       -0.0565
      9 H          -4.3227    7.0315   -9.5761 H       1  UNL1        0.0621
     10 C          -5.4067    6.7505   -7.7563 C.ar    1  UNL1       -0.0222
     11 C          -9.1951    7.0725   -7.3132 C.3     1  UNL1       -0.0197
     12 H          -9.0902    6.9536   -6.2235 H       1  UNL1        0.0344
     13 C          -9.9706    5.8767   -7.8767 C.3     1  UNL1       -0.0586
     14 H          -9.4106    4.9548   -7.7372 H       1  UNL1        0.0235
     15 H         -10.1458    6.0055   -8.9425 H       1  UNL1        0.0235
     16 H         -10.9321    5.7779   -7.3780 H       1  UNL1        0.0235
     17 C          -9.9620    8.3702   -7.5689 C.3     1  UNL1       -0.0586
     18 H          -9.4028    9.2220   -7.1900 H       1  UNL1        0.0235
     19 H         -10.9245    8.3329   -7.0641 H       1  UNL1        0.0235
     20 H         -10.1457    8.5183   -8.6301 H       1  UNL1        0.0235
     21 C          -4.1783    6.3878   -6.9532 C.3     1  UNL1       -0.0197
     22 H          -4.4250    6.4312   -5.8826 H       1  UNL1        0.0344
     23 C          -3.0234    7.3635   -7.1905 C.3     1  UNL1       -0.0586
     24 H          -3.3608    8.3902   -7.0698 H       1  UNL1        0.0235
     25 H          -2.6044    7.2492   -8.1873 H       1  UNL1        0.0235
     26 H          -2.2343    7.1708   -6.4678 H       1  UNL1        0.0235
     27 C          -3.7424    4.9554   -7.2749 C.3     1  UNL1       -0.0586
     28 H          -4.5255    4.2489   -7.0107 H       1  UNL1        0.0235
     29 H          -2.8573    4.7027   -6.6964 H       1  UNL1        0.0235
     30 H          -3.5167    4.8525   -8.3348 H       1  UNL1        0.0235
     31 H          -6.5098    5.4016   -5.7006 H       1  UNL1        0.1699
@<TRIPOS>BOND
     1     7     6    1
     2     6     4   ar
     3     6     8   ar
     4     5     4    1
     5     9     8    1
     6     4     3   ar
     7     8    10   ar
     8    15    13    1
     9    20    17    1
    10    30    27    1
    11    25    23    1
    12     3    11    1
    13     3     2   ar
    14    13    14    1
    15    13    16    1
    16    13    11    1
    17    10     2   ar
    18    10    21    1
    19    17    11    1
    20    17    18    1
    21    17    19    1
    22    11    12    1
    23    27    28    1
    24    27    21    1
    25    27    29    1
    26    23    24    1
    27    23    21    1
    28    23    26    1
    29     2     1    1
    30    21    22    1
    31     1    31    1
