@<TRIPOS>MOLECULE
1
 27 26 0 0 0
SMALL
GASTEIGER

@<TRIPOS>ATOM
      1 N          -1.9016    5.1572    5.0526 N.3     1  UNL1        0.0000
      2 SI         -3.2345    5.8125    4.1700 Si      1  UNL1        0.0000
      3 SI         -1.9640    4.0722    6.3951 Si      1  UNL1        0.0000
      4 C          -4.2900    4.4902    3.2821 C.3     1  UNL1        0.0000
      5 H          -3.7456    4.0262    2.4665 H       1  UNL1        0.0000
      6 H          -5.1938    4.9280    2.8707 H       1  UNL1        0.0000
      7 H          -4.5875    3.7058    3.9692 H       1  UNL1        0.0000
      8 C          -2.4685    6.9456    2.8259 C.3     1  UNL1        0.0000
      9 H          -1.6266    7.5289    3.2025 H       1  UNL1        0.0000
     10 H          -3.2008    7.6510    2.4495 H       1  UNL1        0.0000
     11 H          -2.1186    6.3625    1.9800 H       1  UNL1        0.0000
     12 C          -4.4112    6.8792    5.2415 C.3     1  UNL1        0.0000
     13 H          -5.1218    6.2527    5.7684 H       1  UNL1        0.0000
     14 H          -4.9796    7.5710    4.6273 H       1  UNL1        0.0000
     15 H          -3.8758    7.4609    5.9847 H       1  UNL1        0.0000
     16 C          -3.7189    3.9101    7.1261 C.3     1  UNL1        0.0000
     17 H          -4.0697    4.8562    7.5215 H       1  UNL1        0.0000
     18 H          -3.7290    3.1896    7.9375 H       1  UNL1        0.0000
     19 H          -4.4335    3.5784    6.3815 H       1  UNL1        0.0000
     20 C          -1.4123    2.3083    5.8959 C.3     1  UNL1        0.0000
     21 H          -2.0337    1.9087    5.1001 H       1  UNL1        0.0000
     22 H          -1.4836    1.6270    6.7383 H       1  UNL1        0.0000
     23 H          -0.3847    2.3016    5.5521 H       1  UNL1        0.0000
     24 C          -0.8239    4.7657    7.7609 C.3     1  UNL1        0.0000
     25 H          -0.0717    5.4114    7.3237 H       1  UNL1        0.0000
     26 H          -0.3163    3.9745    8.3015 H       1  UNL1        0.0000
     27 H          -1.3800    5.3535    8.4836 H       1  UNL1        0.0000
@<TRIPOS>BOND
     1    11     8    1
     2    10     8    1
     3     5     4    1
     4     8     9    1
     5     8     2    1
     6     6     4    1
     7     4     7    1
     8     4     2    1
     9     2     1    1
    10     2    12    1
    11    14    12    1
    12     1     3    1
    13    21    20    1
    14    12    13    1
    15    12    15    1
    16    23    20    1
    17    20     3    1
    18    20    22    1
    19    19    16    1
    20     3    16    1
    21     3    24    1
    22    16    17    1
    23    16    18    1
    24    25    24    1
    25    24    26    1
    26    24    27    1
