@<TRIPOS>MOLECULE
1
 27 26 0 0 0
SMALL
GASTEIGER

@<TRIPOS>ATOM
      1 N           1.3099    5.1199    6.8041 N.3     1  UNL1        0.0000
      2 SI          1.2468    6.1210    5.4026 Si      1  UNL1        0.0000
      3 C           1.9722    7.7884    6.0137 C.3     1  UNL1        0.0000
      4 H           1.1950    8.5049    6.2576 H       1  UNL1        0.0000
      5 H           2.6069    8.2437    5.2621 H       1  UNL1        0.0000
      6 H           2.5838    7.6467    6.9107 H       1  UNL1        0.0000
      7 C           2.3243    5.4553    3.9745 C.3     1  UNL1        0.0000
      8 H           3.3739    5.4321    4.2490 H       1  UNL1        0.0000
      9 H           2.2246    6.0737    3.0882 H       1  UNL1        0.0000
     10 H           2.0314    4.4460    3.7064 H       1  UNL1        0.0000
     11 C          -0.5306    6.3844    4.7550 C.3     1  UNL1        0.0000
     12 H          -0.8923    5.4901    4.2591 H       1  UNL1        0.0000
     13 H          -0.5698    7.1965    4.0359 H       1  UNL1        0.0000
     14 H          -1.2223    6.6163    5.5579 H       1  UNL1        0.0000
     15 SI          0.6626    3.5600    7.1463 Si      1  UNL1        0.0000
     16 C           1.2233    3.2667    8.9556 C.3     1  UNL1        0.0000
     17 H           2.2055    3.7077    9.1499 H       1  UNL1        0.0000
     18 H           1.2917    2.2122    9.1969 H       1  UNL1        0.0000
     19 H           0.5192    3.7160    9.6490 H       1  UNL1        0.0000
     20 C           1.3543    2.2003    5.9942 C.3     1  UNL1        0.0000
     21 H           1.0048    2.3521    4.9784 H       1  UNL1        0.0000
     22 H           1.0255    1.2152    6.3096 H       1  UNL1        0.0000
     23 H           2.4388    2.1958    5.9692 H       1  UNL1        0.0000
     24 C          -1.2420    3.4928    7.0721 C.3     1  UNL1        0.0000
     25 H          -1.6885    4.2223    7.7396 H       1  UNL1        0.0000
     26 H          -1.6090    2.5124    7.3579 H       1  UNL1        0.0000
     27 H          -1.5982    3.6987    6.0689 H       1  UNL1        0.0000
@<TRIPOS>BOND
     1     9     7    1
     2    10     7    1
     3     7     8    1
     4     7     2    1
     5    13    11    1
     6    12    11    1
     7    11     2    1
     8    11    14    1
     9    21    20    1
    10     5     3    1
    11     2     3    1
    12     2     1    1
    13    23    20    1
    14    20    22    1
    15    20    15    1
    16     3     4    1
    17     3     6    1
    18    27    24    1
    19     1    15    1
    20    24    15    1
    21    24    26    1
    22    24    25    1
    23    15    16    1
    24    16    17    1
    25    16    18    1
    26    16    19    1
