@<TRIPOS>MOLECULE
2
 31 31 0 0 0
SMALL
GASTEIGER

@<TRIPOS>ATOM
      1 SI          9.3982    0.6253   12.7044 Si      1  UNL1        0.0000
      2 N           8.5279    0.4935   11.2203 N.pl3   1  UNL1        0.0000
      3 C           8.1141    1.6107   10.5104 C.ar    1  UNL1        0.0000
      4 C           6.9332    2.2956   10.8382 C.ar    1  UNL1        0.0000
      5 C           6.5589    3.4140   10.1088 C.ar    1  UNL1        0.0000
      6 H           5.6494    3.9355   10.3749 H       1  UNL1        0.0000
      7 C           7.3257    3.8647    9.0507 C.ar    1  UNL1        0.0000
      8 H           7.0242    4.7381    8.4913 H       1  UNL1        0.0000
      9 C           8.4807    3.1802    8.7104 C.ar    1  UNL1        0.0000
     10 H           9.0816    3.5230    7.8788 H       1  UNL1        0.0000
     11 C           8.8841    2.0648    9.4224 C.ar    1  UNL1        0.0000
     12 C          10.1382    1.3296    9.0555 C.3     1  UNL1        0.0000
     13 H          10.4230    1.5322    8.0258 H       1  UNL1        0.0000
     14 H           9.9866    0.2551    9.1938 H       1  UNL1        0.0000
     15 H          10.9556    1.6385    9.7073 H       1  UNL1        0.0000
     16 C           6.0730    1.8095   11.9652 C.3     1  UNL1        0.0000
     17 H           6.1876    0.7331   12.0749 H       1  UNL1        0.0000
     18 H           5.0273    2.0507   11.7836 H       1  UNL1        0.0000
     19 H           6.3717    2.2755   12.9033 H       1  UNL1        0.0000
     20 C          10.4907   -0.9416   12.7255 C.3     1  UNL1        0.0000
     21 H          11.2752   -0.8855   11.9789 H       1  UNL1        0.0000
     22 H           9.8912   -1.8239   12.5037 H       1  UNL1        0.0000
     23 H          10.9584   -1.0914   13.6912 H       1  UNL1        0.0000
     24 C           8.3557    0.5913   14.3205 C.3     1  UNL1        0.0000
     25 H           7.9227    1.5618   14.5395 H       1  UNL1        0.0000
     26 H           8.9866    0.3237   15.1626 H       1  UNL1        0.0000
     27 H           7.5461   -0.1301   14.2821 H       1  UNL1        0.0000
     28 C          10.4477    2.2225   12.8035 C.3     1  UNL1        0.0000
     29 H          11.3286    2.1690   12.1723 H       1  UNL1        0.0000
     30 H          10.7801    2.4208   13.8174 H       1  UNL1        0.0000
     31 H           9.8620    3.0753   12.4735 H       1  UNL1        0.0000
@<TRIPOS>BOND
     1    10     9    1
     2    13    12    1
     3     8     7    1
     4     9     7   ar
     5     9    11   ar
     6     7     5   ar
     7    12    14    1
     8    12    11    1
     9    12    15    1
    10    11     3   ar
    11     5     6    1
    12     5     4   ar
    13     3     4   ar
    14     3     2    1
    15     4    16    1
    16     2     1    1
    17    18    16    1
    18    16    17    1
    19    16    19    1
    20    21    20    1
    21    29    28    1
    22    31    28    1
    23    22    20    1
    24     1    20    1
    25     1    28    1
    26     1    24    1
    27    20    23    1
    28    28    30    1
    29    27    24    1
    30    24    25    1
    31    24    26    1
