@<TRIPOS>MOLECULE
2
 24 23 0 0 0
SMALL
GASTEIGER

@<TRIPOS>ATOM
      1 N           6.7515   -1.0115    8.8246 N.3     1  UNL1       -0.3071
      2 N           7.0988   -3.0347   11.1291 N.3     1  UNL1       -0.3071
      3 C           5.6691   -0.0418    8.8413 C.3     1  UNL1       -0.0130
      4 H           4.9849   -0.1837    7.9894 H       1  UNL1        0.0391
      5 H           6.0839    0.9609    8.7941 H       1  UNL1        0.0391
      6 H           5.0953   -0.1248    9.7603 H       1  UNL1        0.0391
      7 C           7.5274   -0.8277    7.6060 C.3     1  UNL1       -0.0130
      8 H           6.9285   -1.0206    6.7029 H       1  UNL1        0.0391
      9 H           8.3842   -1.4948    7.6218 H       1  UNL1        0.0391
     10 H           7.8860    0.1974    7.5747 H       1  UNL1        0.0391
     11 C           6.2231   -2.3703    8.9104 C.3     1  UNL1        0.0111
     12 H           6.9882   -3.0538    8.5428 H       1  UNL1        0.0439
     13 H           5.3224   -2.4870    8.2830 H       1  UNL1        0.0439
     14 C           5.8883   -2.7449   10.3554 C.3     1  UNL1        0.0111
     15 H           5.3758   -1.9027   10.8217 H       1  UNL1        0.0439
     16 H           5.2032   -3.6072   10.3671 H       1  UNL1        0.0439
     17 C           7.4644   -4.4366   10.9916 C.3     1  UNL1       -0.0130
     18 H           6.6856   -5.0997   11.3989 H       1  UNL1        0.0391
     19 H           8.3956   -4.6221   11.5211 H       1  UNL1        0.0391
     20 H           7.6174   -4.6799    9.9439 H       1  UNL1        0.0391
     21 C           6.8948   -2.7243   12.5404 C.3     1  UNL1       -0.0130
     22 H           6.0550   -3.2914   12.9692 H       1  UNL1        0.0391
     23 H           6.7033   -1.6580   12.6524 H       1  UNL1        0.0391
     24 H           7.7970   -2.9686   13.0979 H       1  UNL1        0.0391
@<TRIPOS>BOND
     1     8     7    1
     2    10     7    1
     3     7     9    1
     4     7     1    1
     5     4     3    1
     6    13    11    1
     7    12    11    1
     8     5     3    1
     9     1     3    1
    10     1    11    1
    11     3     6    1
    12    11    14    1
    13    20    17    1
    14    14    16    1
    15    14    15    1
    16    14     2    1
    17    17     2    1
    18    17    18    1
    19    17    19    1
    20     2    21    1
    21    21    23    1
    22    21    22    1
    23    21    24    1
