@<TRIPOS>MOLECULE
2
 31 31 0 0 0
SMALL
GASTEIGER

@<TRIPOS>ATOM
      1 SI          5.8066    2.4467    0.8250 Si      1  UNL1        0.0000
      2 N           6.2192    3.1152    2.3762 N.pl3   1  UNL1        0.0000
      3 C           6.1782    4.4834    2.6284 C.ar    1  UNL1        0.0000
      4 C           5.0582    5.0241    3.2882 C.ar    1  UNL1        0.0000
      5 C           5.0042    6.3829    3.5444 C.ar    1  UNL1        0.0000
      6 H           4.1394    6.7923    4.0477 H       1  UNL1        0.0000
      7 C           6.0373    7.2233    3.1639 C.ar    1  UNL1        0.0000
      8 H           5.9809    8.2822    3.3673 H       1  UNL1        0.0000
      9 C           7.1433    6.6922    2.5291 C.ar    1  UNL1        0.0000
     10 H           7.9599    7.3383    2.2382 H       1  UNL1        0.0000
     11 C           7.2299    5.3339    2.2597 C.ar    1  UNL1        0.0000
     12 C           8.4517    4.7817    1.5905 C.3     1  UNL1        0.0000
     13 H           9.3345    5.3520    1.8738 H       1  UNL1        0.0000
     14 H           8.3496    4.8330    0.5073 H       1  UNL1        0.0000
     15 H           8.5822    3.7389    1.8696 H       1  UNL1        0.0000
     16 C           3.9280    4.1262    3.6987 C.3     1  UNL1        0.0000
     17 H           3.2285    4.6559    4.3400 H       1  UNL1        0.0000
     18 H           4.3052    3.2492    4.2356 H       1  UNL1        0.0000
     19 H           3.3945    3.7716    2.8169 H       1  UNL1        0.0000
     20 C           7.2330    2.2769   -0.4455 C.3     1  UNL1        0.0000
     21 H           8.1570    1.9305    0.0042 H       1  UNL1        0.0000
     22 H           7.4379    3.2178   -0.9451 H       1  UNL1        0.0000
     23 H           6.9549    1.5596   -1.2115 H       1  UNL1        0.0000
     24 C           4.4327    3.4621   -0.0361 C.3     1  UNL1        0.0000
     25 H           3.4504    3.2505    0.3740 H       1  UNL1        0.0000
     26 H           4.3956    3.2503   -1.0997 H       1  UNL1        0.0000
     27 H           4.6159    4.5259    0.0835 H       1  UNL1        0.0000
     28 C           5.2221    0.6883    1.2814 C.3     1  UNL1        0.0000
     29 H           4.3153    0.7132    1.8793 H       1  UNL1        0.0000
     30 H           5.9844    0.1710    1.8616 H       1  UNL1        0.0000
     31 H           5.0194    0.0904    0.4009 H       1  UNL1        0.0000
@<TRIPOS>BOND
     1    23    20    1
     2    26    24    1
     3    22    20    1
     4    20    21    1
     5    20     1    1
     6    24    27    1
     7    24    25    1
     8    24     1    1
     9    31    28    1
    10    14    12    1
    11     1    28    1
    12     1     2    1
    13    28    30    1
    14    28    29    1
    15    12    15    1
    16    12    13    1
    17    12    11    1
    18    10     9    1
    19    11     9   ar
    20    11     3   ar
    21     2     3    1
    22     9     7   ar
    23     3     4   ar
    24    19    16    1
    25     7     8    1
    26     7     5   ar
    27     4     5   ar
    28     4    16    1
    29     5     6    1
    30    16    18    1
    31    16    17    1
