@<TRIPOS>MOLECULE
1
 14 14 0 0 0
SMALL
GASTEIGER

@<TRIPOS>ATOM
      1 N           3.5543    5.2035   18.0235 N.pl3   1  UNL1       -0.2487
      2 C           3.3008    6.4043   17.4499 C.3     1  UNL1        0.0842
      3 H           3.2677    6.4079   16.3614 H       1  UNL1        0.0584
      4 C           3.0961    7.5633   18.1569 C.2     1  UNL1       -0.0571
      5 H           2.8974    8.4839   17.6282 H       1  UNL1        0.0594
      6 C           3.1445    7.5560   19.5534 C.2     1  UNL1       -0.0513
      7 C           3.4108    6.3229   20.1493 C.2     1  UNL1       -0.0437
      8 H           3.4663    6.2395   21.2240 H       1  UNL1        0.0633
      9 C           3.6040    5.2026   19.3752 C.2     1  UNL1        0.0124
     10 H           3.8101    4.2400   19.8244 H       1  UNL1        0.0797
     11 C           2.9268    8.8023   20.3466 C.3     1  UNL1       -0.0399
     12 H           2.9674    8.5945   21.4124 H       1  UNL1        0.0277
     13 H           1.9563    9.2381   20.1115 H       1  UNL1        0.0277
     14 H           3.6893    9.5430   20.1065 H       1  UNL1        0.0277
@<TRIPOS>BOND
     1     3     2    1
     2     2     1    1
     3     2     4    1
     4     5     4    1
     5     1     9    1
     6     4     6    2
     7     9    10    1
     8     9     7    2
     9     6     7    1
    10     6    11    1
    11    14    11    1
    12    13    11    1
    13     7     8    1
    14    11    12    1
