@<TRIPOS>MOLECULE
1
 14 14 0 0 0
SMALL
GASTEIGER

@<TRIPOS>ATOM
      1 N           3.8795    2.8765   14.8958 N.pl3   1  UNL1       -0.2487
      2 C           4.1031    1.5999   14.5081 C.3     1  UNL1        0.0842
      3 H           4.2532    0.8921   15.3098 H       1  UNL1        0.0584
      4 C           4.1444    1.1945   13.1944 C.2     1  UNL1       -0.0571
      5 H           4.3287    0.1549   12.9695 H       1  UNL1        0.0594
      6 C           3.9515    2.1117   12.1611 C.2     1  UNL1       -0.0513
      7 C           3.7188    3.4317   12.5556 C.2     1  UNL1       -0.0437
      8 H           3.5583    4.2012   11.8153 H       1  UNL1        0.0633
      9 C           3.6903    3.7599   13.8895 C.2     1  UNL1        0.0124
     10 H           3.5064    4.7846   14.1983 H       1  UNL1        0.0797
     11 C           3.9943    1.7238   10.7198 C.3     1  UNL1       -0.0399
     12 H           4.1034    0.6480   10.6117 H       1  UNL1        0.0277
     13 H           4.8332    2.2100   10.2218 H       1  UNL1        0.0277
     14 H           3.0822    2.0374   10.2134 H       1  UNL1        0.0277
@<TRIPOS>BOND
     1    14    11    1
     2    13    11    1
     3    12    11    1
     4    11     6    1
     5     8     7    1
     6     6     7    1
     7     6     4    2
     8     7     9    2
     9     5     4    1
    10     4     2    1
    11     9    10    1
    12     9     1    1
    13     2     1    1
    14     2     3    1
