@<TRIPOS>MOLECULE
3
 27 26 0 0 0
SMALL
GASTEIGER

@<TRIPOS>ATOM
      1 SI          4.4100    3.5306   10.7559 Si      1  UNL1        0.0000
      2 SI          6.6549    5.5415   10.6506 Si      1  UNL1        0.0000
      3 N           5.5201    4.5988   11.6393 N.3     1  UNL1        0.0000
      4 C           5.3054    1.8777   10.3876 C.3     1  UNL1        0.0000
      5 H           4.7147    1.2811    9.7001 H       1  UNL1        0.0000
      6 H           6.2830    2.0235    9.9428 H       1  UNL1        0.0000
      7 H           5.4381    1.2935   11.2929 H       1  UNL1        0.0000
      8 C           3.7610    4.3045    9.1305 C.3     1  UNL1        0.0000
      9 H           3.2275    3.5458    8.5666 H       1  UNL1        0.0000
     10 H           3.0581    5.1084    9.3286 H       1  UNL1        0.0000
     11 H           4.5406    4.6991    8.4915 H       1  UNL1        0.0000
     12 C           2.7933    3.1086   11.6820 C.3     1  UNL1        0.0000
     13 H           2.9515    2.4631   12.5388 H       1  UNL1        0.0000
     14 H           2.1281    2.5816   11.0041 H       1  UNL1        0.0000
     15 H           2.2684    3.9943   12.0265 H       1  UNL1        0.0000
     16 C           7.3493    4.5554    9.1649 C.3     1  UNL1        0.0000
     17 H           8.0516    3.7936    9.4902 H       1  UNL1        0.0000
     18 H           7.8923    5.2331    8.5138 H       1  UNL1        0.0000
     19 H           6.5885    4.0683    8.5686 H       1  UNL1        0.0000
     20 C           5.7708    7.1261   10.0366 C.3     1  UNL1        0.0000
     21 H           4.8123    6.9163    9.5764 H       1  UNL1        0.0000
     22 H           6.3870    7.6331    9.3014 H       1  UNL1        0.0000
     23 H           5.6004    7.8214   10.8525 H       1  UNL1        0.0000
     24 C           8.2444    6.0911   11.5566 C.3     1  UNL1        0.0000
     25 H           8.0620    6.8475   12.3119 H       1  UNL1        0.0000
     26 H           8.9300    6.5217   10.8327 H       1  UNL1        0.0000
     27 H           8.7577    5.2624   12.0347 H       1  UNL1        0.0000
@<TRIPOS>BOND
     1    11     8    1
     2    18    16    1
     3     9     8    1
     4    19    16    1
     5     8    10    1
     6     8     1    1
     7    16    17    1
     8    16     2    1
     9    22    20    1
    10    21    20    1
    11     5     4    1
    12     6     4    1
    13    20     2    1
    14    20    23    1
    15     4     1    1
    16     4     7    1
    17     2    24    1
    18     2     3    1
    19     1     3    1
    20     1    12    1
    21    26    24    1
    22    14    12    1
    23    24    27    1
    24    24    25    1
    25    12    15    1
    26    12    13    1
