@<TRIPOS>MOLECULE
3
 27 26 0 0 0
SMALL
GASTEIGER

@<TRIPOS>ATOM
      1 SI         24.6519   10.2919   14.8932 Si      1  UNL1        0.0000
      2 SI         22.5223   10.7292   12.8191 Si      1  UNL1        0.0000
      3 N          23.0438   10.0521   14.3175 N.3     1  UNL1        0.0000
      4 C          24.8072    9.2236   16.4770 C.3     1  UNL1        0.0000
      5 C          25.0803   12.0964   15.3726 C.3     1  UNL1        0.0000
      6 C          26.0222    9.7286   13.6772 C.3     1  UNL1        0.0000
      7 C          22.9705   12.5749   12.5750 C.3     1  UNL1        0.0000
      8 C          23.1710    9.8397   11.2487 C.3     1  UNL1        0.0000
      9 C          20.6078   10.5976   12.7918 C.3     1  UNL1        0.0000
     10 H          24.6089    8.1721   16.2659 H       1  UNL1        0.0000
     11 H          24.1117    9.5662   17.2425 H       1  UNL1        0.0000
     12 H          25.8078    9.2819   16.8957 H       1  UNL1        0.0000
     13 H          24.2410   12.5874   15.8532 H       1  UNL1        0.0000
     14 H          25.9235   12.1376   16.0553 H       1  UNL1        0.0000
     15 H          25.3420   12.6792   14.4966 H       1  UNL1        0.0000
     16 H          27.0015    9.7656   14.1435 H       1  UNL1        0.0000
     17 H          26.0490   10.3796   12.8103 H       1  UNL1        0.0000
     18 H          25.8636    8.7154   13.3224 H       1  UNL1        0.0000
     19 H          22.4320   13.0049   11.7362 H       1  UNL1        0.0000
     20 H          22.7420   13.1689   13.4532 H       1  UNL1        0.0000
     21 H          24.0303   12.6836   12.3735 H       1  UNL1        0.0000
     22 H          24.2406    9.6761   11.3064 H       1  UNL1        0.0000
     23 H          22.9788   10.4378   10.3629 H       1  UNL1        0.0000
     24 H          22.6997    8.8740   11.1036 H       1  UNL1        0.0000
     25 H          20.2434   10.4194   11.7858 H       1  UNL1        0.0000
     26 H          20.2740    9.7640   13.4182 H       1  UNL1        0.0000
     27 H          20.1363   11.5076   13.1504 H       1  UNL1        0.0000
@<TRIPOS>BOND
     1    23     8    1
     2    24     8    1
     3     8    22    1
     4     8     2    1
     5    19     7    1
     6    25     9    1
     7    21     7    1
     8     7     2    1
     9     7    20    1
    10     9     2    1
    11     9    27    1
    12     9    26    1
    13    17     6    1
    14     2     3    1
    15    18     6    1
    16     6    16    1
    17     6     1    1
    18     3     1    1
    19    15     5    1
    20     1     5    1
    21     1     4    1
    22     5    13    1
    23     5    14    1
    24    10     4    1
    25     4    12    1
    26     4    11    1
