@<TRIPOS>MOLECULE
3
 27 26 0 0 0
SMALL
GASTEIGER

@<TRIPOS>ATOM
      1 SI         21.8227    8.8144   19.1661 Si      1  UNL1        0.0000
      2 SI         21.2160   11.4882   17.9359 Si      1  UNL1        0.0000
      3 N          21.5086    9.7955   17.7826 N.3     1  UNL1        0.0000
      4 C          22.5468    7.1586   18.5197 C.3     1  UNL1        0.0000
      5 C          20.2803    8.3757   20.2185 C.3     1  UNL1        0.0000
      6 C          23.0901    9.5493   20.3983 C.3     1  UNL1        0.0000
      7 C          19.7668   11.9384   19.1068 C.3     1  UNL1        0.0000
      8 C          22.7163   12.5194   18.5319 C.3     1  UNL1        0.0000
      9 C          20.7576   12.1026   16.1790 C.3     1  UNL1        0.0000
     10 H          23.6324    7.1622   18.5300 H       1  UNL1        0.0000
     11 H          22.2110    6.9712   17.4945 H       1  UNL1        0.0000
     12 H          22.2200    6.3247   19.1316 H       1  UNL1        0.0000
     13 H          19.6593    7.6335   19.7291 H       1  UNL1        0.0000
     14 H          20.5745    7.9751   21.1840 H       1  UNL1        0.0000
     15 H          19.6670    9.2509   20.3987 H       1  UNL1        0.0000
     16 H          23.4090    8.8092   21.1256 H       1  UNL1        0.0000
     17 H          22.6517   10.3771   20.9444 H       1  UNL1        0.0000
     18 H          23.9762    9.9215   19.8958 H       1  UNL1        0.0000
     19 H          18.8541   11.4092   18.8524 H       1  UNL1        0.0000
     20 H          20.0177   11.6867   20.1314 H       1  UNL1        0.0000
     21 H          19.5511   13.0016   19.0752 H       1  UNL1        0.0000
     22 H          22.8050   12.4875   19.6120 H       1  UNL1        0.0000
     23 H          22.6233   13.5619   18.2432 H       1  UNL1        0.0000
     24 H          23.6447   12.1425   18.1163 H       1  UNL1        0.0000
     25 H          20.5115   13.1605   16.1820 H       1  UNL1        0.0000
     26 H          21.5919   11.9623   15.4924 H       1  UNL1        0.0000
     27 H          19.8879   11.5722   15.7888 H       1  UNL1        0.0000
@<TRIPOS>BOND
     1    26     9    1
     2    27     9    1
     3     9    25    1
     4     9     2    1
     5    11     4    1
     6     3     2    1
     7     3     1    1
     8     2     8    1
     9     2     7    1
    10    24     8    1
    11    23     8    1
    12     4    10    1
    13     4    12    1
    14     4     1    1
    15     8    22    1
    16    19     7    1
    17    21     7    1
    18     7    20    1
    19     1     5    1
    20     1     6    1
    21    13     5    1
    22    18     6    1
    23     5    15    1
    24     5    14    1
    25     6    17    1
    26     6    16    1
