@<TRIPOS>MOLECULE
1
 9 8 0 0 0
SMALL
GASTEIGER

@<TRIPOS>ATOM
      1 N           6.9263   -0.1578   11.2329 N.3     1  UNL1       -0.2469
      2 C           7.6207   -0.6236   12.4120 C.3     1  UNL1        0.0021
      3 C           7.4098   -0.8837   10.0850 C.3     1  UNL1        0.0021
      4 H           7.5664   -1.7242   12.4978 H       1  UNL1        0.0405
      5 H           7.1732   -0.1817   13.3050 H       1  UNL1        0.0405
      6 H           8.6919   -0.3575   12.3745 H       1  UNL1        0.0405
      7 H           8.4744   -0.6614    9.8873 H       1  UNL1        0.0405
      8 H           6.8326   -0.6473    9.1936 H       1  UNL1        0.0405
      9 H           7.3427   -1.9746   10.2548 H       1  UNL1        0.0405
@<TRIPOS>BOND
     1     8     3    1
     2     7     3    1
     3     3     9    1
     4     3     1    1
     5     1     2    1
     6     6     2    1
     7     2     4    1
     8     2     5    1
