@<TRIPOS>MOLECULE
1
 15 14 0 0 0
SMALL
GASTEIGER

@<TRIPOS>ATOM
      1 N           6.3189    4.7632    5.5547 N.3     1  UNL1       -0.2409
      2 C           7.6581    5.2097    5.8971 C.3     1  UNL1        0.0111
      3 C           8.3628    4.2771    6.8993 C.3     1  UNL1       -0.0510
      4 C           5.3357    5.1452    6.5487 C.3     1  UNL1        0.0111
      5 C           4.7083    6.5228    6.2523 C.3     1  UNL1       -0.0510
      6 H           7.6336    6.2278    6.3276 H       1  UNL1        0.0438
      7 H           8.2718    5.2393    4.9834 H       1  UNL1        0.0438
      8 H           7.7755    4.1723    7.8098 H       1  UNL1        0.0242
      9 H           9.3417    4.6727    7.1608 H       1  UNL1        0.0242
     10 H           8.4861    3.2950    6.4422 H       1  UNL1        0.0242
     11 H           5.7839    5.1871    7.5551 H       1  UNL1        0.0438
     12 H           4.5350    4.3934    6.5828 H       1  UNL1        0.0438
     13 H           5.4627    7.3037    6.3224 H       1  UNL1        0.0242
     14 H           3.9143    6.7450    6.9620 H       1  UNL1        0.0242
     15 H           4.2974    6.5327    5.2426 H       1  UNL1        0.0242
@<TRIPOS>BOND
     1     7     2    1
     2    15     5    1
     3     1     2    1
     4     1     4    1
     5     2     6    1
     6     2     3    1
     7     5    13    1
     8     5     4    1
     9     5    14    1
    10    10     3    1
    11     4    12    1
    12     4    11    1
    13     3     9    1
    14     3     8    1
