@<TRIPOS>MOLECULE
1
 15 14 0 0 0
SMALL
GASTEIGER

@<TRIPOS>ATOM
      1 N           4.6066    2.2931    4.3521 N.3     1  UNL1       -0.2409
      2 C           3.2160    2.5131    3.9966 C.3     1  UNL1        0.0111
      3 C           2.5940    3.7682    4.6453 C.3     1  UNL1       -0.0510
      4 C           4.7396    1.6371    5.6457 C.3     1  UNL1        0.0111
      5 C           4.5159    0.1145    5.5736 C.3     1  UNL1       -0.0510
      6 H           2.6002    1.6417    4.2745 H       1  UNL1        0.0438
      7 H           3.1406    2.6256    2.9077 H       1  UNL1        0.0438
      8 H           2.4654    3.6307    5.7180 H       1  UNL1        0.0242
      9 H           1.6147    3.9698    4.2140 H       1  UNL1        0.0242
     10 H           3.2524    4.6240    4.4708 H       1  UNL1        0.0242
     11 H           4.0276    2.0424    6.3906 H       1  UNL1        0.0438
     12 H           5.7601    1.8266    6.0212 H       1  UNL1        0.0438
     13 H           3.4826   -0.1134    5.3204 H       1  UNL1        0.0242
     14 H           4.7442   -0.3454    6.5321 H       1  UNL1        0.0242
     15 H           5.1579   -0.3180    4.8096 H       1  UNL1        0.0242
@<TRIPOS>BOND
     1     7     2    1
     2     2     6    1
     3     2     1    1
     4     2     3    1
     5     9     3    1
     6     1     4    1
     7    10     3    1
     8     3     8    1
     9    15     5    1
    10    13     5    1
    11     5     4    1
    12     5    14    1
    13     4    12    1
    14     4    11    1
