@<TRIPOS>MOLECULE
1
 9 8 0 0 0
SMALL
GASTEIGER

@<TRIPOS>ATOM
      1 N           4.5505   -0.0914   12.6713 N.3     1  UNL1       -0.2469
      2 C           3.7746    0.3955   13.7815 C.3     1  UNL1        0.0021
      3 C           4.3519   -1.5052   12.4784 C.3     1  UNL1        0.0021
      4 H           2.6927    0.2371   13.6219 H       1  UNL1        0.0405
      5 H           3.9617    1.4635   13.9284 H       1  UNL1        0.0405
      6 H           4.0456   -0.1345   14.7109 H       1  UNL1        0.0405
      7 H           4.6794   -2.0796   13.3625 H       1  UNL1        0.0405
      8 H           4.9184   -1.8494   11.6077 H       1  UNL1        0.0405
      9 H           3.2832   -1.7400   12.3210 H       1  UNL1        0.0405
@<TRIPOS>BOND
     1     8     3    1
     2     9     3    1
     3     3     1    1
     4     3     7    1
     5     1     2    1
     6     4     2    1
     7     2     5    1
     8     2     6    1
