@<TRIPOS>MOLECULE
3
 27 26 0 0 0
SMALL
GASTEIGER

@<TRIPOS>ATOM
      1 SI          4.2320    5.6923    7.1026 Si      1  UNL1        0.0000
      2 SI          4.9881    2.8641    7.7481 Si      1  UNL1        0.0000
      3 N           4.2134    4.0160    6.7320 N.3     1  UNL1        0.0000
      4 C           3.2975    6.6427    5.7204 C.3     1  UNL1        0.0000
      5 H           2.2390    6.7503    5.9393 H       1  UNL1        0.0000
      6 H           3.4093    6.1418    4.7574 H       1  UNL1        0.0000
      7 H           3.7007    7.6453    5.6151 H       1  UNL1        0.0000
      8 C           3.3781    6.1321    8.7659 C.3     1  UNL1        0.0000
      9 H           4.0120    5.8540    9.6006 H       1  UNL1        0.0000
     10 H           2.4365    5.6048    8.8858 H       1  UNL1        0.0000
     11 H           3.1747    7.1952    8.8478 H       1  UNL1        0.0000
     12 C           5.9587    6.5189    7.1759 C.3     1  UNL1        0.0000
     13 H           6.5226    6.3285    6.2693 H       1  UNL1        0.0000
     14 H           6.5416    6.1448    8.0083 H       1  UNL1        0.0000
     15 H           5.8768    7.5954    7.2927 H       1  UNL1        0.0000
     16 C           4.0713    2.4473    9.3789 C.3     1  UNL1        0.0000
     17 H           3.1358    1.9374    9.1836 H       1  UNL1        0.0000
     18 H           3.8478    3.3487    9.9378 H       1  UNL1        0.0000
     19 H           4.6716    1.8059   10.0163 H       1  UNL1        0.0000
     20 C           6.7801    3.2801    8.2792 C.3     1  UNL1        0.0000
     21 H           6.7827    4.0531    9.0397 H       1  UNL1        0.0000
     22 H           7.3723    3.6368    7.4443 H       1  UNL1        0.0000
     23 H           7.2835    2.4133    8.6962 H       1  UNL1        0.0000
     24 C           5.0789    1.2386    6.7287 C.3     1  UNL1        0.0000
     25 H           5.2030    1.4553    5.6632 H       1  UNL1        0.0000
     26 H           4.1802    0.6456    6.8762 H       1  UNL1        0.0000
     27 H           5.9224    0.6271    7.0348 H       1  UNL1        0.0000
@<TRIPOS>BOND
     1     6     4    1
     2     7     4    1
     3    25    24    1
     4     4     5    1
     5     4     1    1
     6    13    12    1
     7    24    26    1
     8    24    27    1
     9    24     2    1
    10     3     1    1
    11     3     2    1
    12     1    12    1
    13     1     8    1
    14    12    15    1
    15    12    14    1
    16    22    20    1
    17     2    20    1
    18     2    16    1
    19    20    23    1
    20    20    21    1
    21     8    11    1
    22     8    10    1
    23     8     9    1
    24    17    16    1
    25    16    18    1
    26    16    19    1
