@<TRIPOS>MOLECULE
3
 27 26 0 0 0
SMALL
GASTEIGER

@<TRIPOS>ATOM
      1 SI          7.9160    5.7837   14.0730 Si      1  UNL1        0.0000
      2 SI          5.8768    7.1180   15.7632 Si      1  UNL1        0.0000
      3 N           6.2616    6.1887   14.3574 N.3     1  UNL1        0.0000
      4 C           8.7481    6.8137   12.6762 C.3     1  UNL1        0.0000
      5 H           8.5286    6.4072   11.6943 H       1  UNL1        0.0000
      6 H           9.8275    6.8162   12.7905 H       1  UNL1        0.0000
      7 H           8.4164    7.8459   12.7054 H       1  UNL1        0.0000
      8 C           9.1205    5.9906   15.5436 C.3     1  UNL1        0.0000
      9 H           9.1129    7.0032   15.9294 H       1  UNL1        0.0000
     10 H          10.1384    5.7623   15.2418 H       1  UNL1        0.0000
     11 H           8.8670    5.3250   16.3594 H       1  UNL1        0.0000
     12 C           8.1146    3.9483   13.5704 C.3     1  UNL1        0.0000
     13 H           7.7005    3.2895   14.3255 H       1  UNL1        0.0000
     14 H           9.1647    3.6973   13.4558 H       1  UNL1        0.0000
     15 H           7.6235    3.7377   12.6270 H       1  UNL1        0.0000
     16 C           6.5680    8.9052   15.6910 C.3     1  UNL1        0.0000
     17 H           7.6483    8.8935   15.5948 H       1  UNL1        0.0000
     18 H           6.3219    9.4685   16.5856 H       1  UNL1        0.0000
     19 H           6.1693    9.4429   14.8375 H       1  UNL1        0.0000
     20 C           6.4254    6.3582   17.4373 C.3     1  UNL1        0.0000
     21 H           6.4661    5.2757   17.3813 H       1  UNL1        0.0000
     22 H           5.7303    6.6188   18.2298 H       1  UNL1        0.0000
     23 H           7.4052    6.7092   17.7377 H       1  UNL1        0.0000
     24 C           3.9779    7.2374   15.9379 C.3     1  UNL1        0.0000
     25 H           3.5187    7.6354   15.0396 H       1  UNL1        0.0000
     26 H           3.7143    7.8986   16.7579 H       1  UNL1        0.0000
     27 H           3.5468    6.2654   16.1573 H       1  UNL1        0.0000
@<TRIPOS>BOND
     1     5     4    1
     2    15    12    1
     3     4     7    1
     4     4     6    1
     5     4     1    1
     6    14    12    1
     7    12     1    1
     8    12    13    1
     9     1     3    1
    10     1     8    1
    11     3     2    1
    12    19    16    1
    13    25    24    1
    14    10     8    1
    15     8     9    1
    16     8    11    1
    17    17    16    1
    18    16     2    1
    19    16    18    1
    20     2    24    1
    21     2    20    1
    22    24    27    1
    23    24    26    1
    24    21    20    1
    25    20    23    1
    26    20    22    1
