@<TRIPOS>MOLECULE
3
 27 26 0 0 0
SMALL
GASTEIGER

@<TRIPOS>ATOM
      1 SI          2.9106    3.2740   10.9772 Si      1  UNL1        0.0000
      2 SI          4.0949    2.4285   13.5926 Si      1  UNL1        0.0000
      3 N           3.7415    3.6676   12.4355 N.3     1  UNL1        0.0000
      4 C           3.5480    1.7197   10.0415 C.3     1  UNL1        0.0000
      5 H           4.5957    1.7833    9.7680 H       1  UNL1        0.0000
      6 H           2.9841    1.5669    9.1263 H       1  UNL1        0.0000
      7 H           3.4194    0.8323   10.6514 H       1  UNL1        0.0000
      8 C           3.0948    4.7450    9.7624 C.3     1  UNL1        0.0000
      9 H           3.3317    5.6651   10.3016 H       1  UNL1        0.0000
     10 H           2.1645    4.9037    9.2278 H       1  UNL1        0.0000
     11 H           3.8722    4.5710    9.0236 H       1  UNL1        0.0000
     12 C           1.0273    2.9363   11.1004 C.3     1  UNL1        0.0000
     13 H           0.8071    2.1521   11.8161 H       1  UNL1        0.0000
     14 H           0.6417    2.6114   10.1383 H       1  UNL1        0.0000
     15 H           0.4723    3.8222   11.3882 H       1  UNL1        0.0000
     16 C           5.5498    1.2676   13.1019 C.3     1  UNL1        0.0000
     17 H           5.3509    0.7753   12.1555 H       1  UNL1        0.0000
     18 H           5.6776    0.4883   13.8474 H       1  UNL1        0.0000
     19 H           6.4982    1.7845   13.0158 H       1  UNL1        0.0000
     20 C           4.5415    3.2908   15.2386 C.3     1  UNL1        0.0000
     21 H           5.2178    4.1308   15.0749 H       1  UNL1        0.0000
     22 H           5.0346    2.6008   15.9160 H       1  UNL1        0.0000
     23 H           3.6568    3.6613   15.7476 H       1  UNL1        0.0000
     24 C           2.6965    1.1626   13.9352 C.3     1  UNL1        0.0000
     25 H           1.8162    1.6050   14.3851 H       1  UNL1        0.0000
     26 H           3.0461    0.3841   14.6063 H       1  UNL1        0.0000
     27 H           2.3885    0.6820   13.0132 H       1  UNL1        0.0000
@<TRIPOS>BOND
     1    11     8    1
     2     6     4    1
     3    10     8    1
     4     8     9    1
     5     8     1    1
     6     5     4    1
     7     4     7    1
     8     4     1    1
     9    14    12    1
    10     1    12    1
    11     1     3    1
    12    12    15    1
    13    12    13    1
    14    17    16    1
    15     3     2    1
    16    27    24    1
    17    19    16    1
    18    16     2    1
    19    16    18    1
    20     2    24    1
    21     2    20    1
    22    24    25    1
    23    24    26    1
    24    21    20    1
    25    20    23    1
    26    20    22    1
