@<TRIPOS>MOLECULE
3
 27 26 0 0 0
SMALL
GASTEIGER

@<TRIPOS>ATOM
      1 SI          5.6632    4.3615    2.6513 Si      1  UNL1        0.0000
      2 SI          3.2372    3.5123    1.1406 Si      1  UNL1        0.0000
      3 N           4.0708    3.6833    2.6346 N.3     1  UNL1        0.0000
      4 C           5.6836    6.2813    2.6436 C.3     1  UNL1        0.0000
      5 H           5.3407    6.6906    3.5876 H       1  UNL1        0.0000
      6 H           5.0510    6.6791    1.8579 H       1  UNL1        0.0000
      7 H           6.6883    6.6551    2.4729 H       1  UNL1        0.0000
      8 C           6.5706    3.7954    4.2366 C.3     1  UNL1        0.0000
      9 H           6.8366    2.7432    4.1986 H       1  UNL1        0.0000
     10 H           5.9724    3.9728    5.1287 H       1  UNL1        0.0000
     11 H           7.4956    4.3517    4.3530 H       1  UNL1        0.0000
     12 C           6.7800    3.8301    1.1901 C.3     1  UNL1        0.0000
     13 H           6.3660    4.1600    0.2443 H       1  UNL1        0.0000
     14 H           6.8893    2.7520    1.1443 H       1  UNL1        0.0000
     15 H           7.7741    4.2563    1.2807 H       1  UNL1        0.0000
     16 C           3.2458    5.0887    0.0427 C.3     1  UNL1        0.0000
     17 H           4.2380    5.2567   -0.3605 H       1  UNL1        0.0000
     18 H           2.9685    5.9835    0.5917 H       1  UNL1        0.0000
     19 H           2.5630    4.9942   -0.7962 H       1  UNL1        0.0000
     20 C           3.8342    2.1036   -0.0127 C.3     1  UNL1        0.0000
     21 H           3.5612    1.1318    0.3849 H       1  UNL1        0.0000
     22 H           4.9088    2.1212   -0.1466 H       1  UNL1        0.0000
     23 H           3.3796    2.1925   -0.9950 H       1  UNL1        0.0000
     24 C           1.3983    3.0902    1.4894 C.3     1  UNL1        0.0000
     25 H           0.7277    3.8819    1.1696 H       1  UNL1        0.0000
     26 H           1.2211    2.9019    2.5504 H       1  UNL1        0.0000
     27 H           1.1231    2.1916    0.9485 H       1  UNL1        0.0000
@<TRIPOS>BOND
     1    23    20    1
     2    19    16    1
     3    17    16    1
     4    22    20    1
     5    20    21    1
     6    20     2    1
     7    16    18    1
     8    16     2    1
     9    13    12    1
    10    27    24    1
    11     2    24    1
    12     2     3    1
    13    14    12    1
    14    25    24    1
    15    12    15    1
    16    12     1    1
    17    24    26    1
    18     6     4    1
    19     7     4    1
    20     3     1    1
    21     4     1    1
    22     4     5    1
    23     1     8    1
    24     9     8    1
    25     8    11    1
    26     8    10    1
