@<TRIPOS>MOLECULE
3
 27 26 0 0 0
SMALL
GASTEIGER

@<TRIPOS>ATOM
      1 SI          4.4461   13.6769    5.2918 Si      1  UNL1        0.0000
      2 SI          4.3510   13.6771    8.4344 Si      1  UNL1        0.0000
      3 N           5.1801   13.6770    6.8778 N.3     1  UNL1        0.0000
      4 C           5.7753   13.6769    3.9158 C.3     1  UNL1        0.0000
      5 H           5.3167   13.6768    2.9297 H       1  UNL1        0.0000
      6 H           6.4087   12.7927    3.9759 H       1  UNL1        0.0000
      7 C           3.3977   12.0930    5.0518 C.3     1  UNL1        0.0000
      8 H           3.2024   11.9118    3.9996 H       1  UNL1        0.0000
      9 H           3.9097   11.2211    5.4516 H       1  UNL1        0.0000
     10 H           2.4391   12.1709    5.5517 H       1  UNL1        0.0000
     11 C           2.4432   13.6771    8.2901 C.3     1  UNL1        0.0000
     12 H           2.0062   13.6771    9.2825 H       1  UNL1        0.0000
     13 H           2.0726   12.8003    7.7721 H       1  UNL1        0.0000
     14 C           4.9300   12.0725    9.2913 C.3     1  UNL1        0.0000
     15 H           4.5900   12.0000   10.3186 H       1  UNL1        0.0000
     16 H           4.5919   11.1842    8.7622 H       1  UNL1        0.0000
     17 H           6.0193   12.0811    9.2845 H       1  UNL1        0.0000
     18 H           6.4086   14.5611    3.9759 H       1  UNL1        0.0000
     19 C           3.3974   15.2605    5.0515 C.3     1  UNL1        0.0000
     20 H           3.2022   15.4416    3.9993 H       1  UNL1        0.0000
     21 H           3.9093   16.1326    5.4512 H       1  UNL1        0.0000
     22 H           2.4388   15.1826    5.5514 H       1  UNL1        0.0000
     23 H           2.0726   14.5539    7.7721 H       1  UNL1        0.0000
     24 C           4.9299   15.2819    9.2911 C.3     1  UNL1        0.0000
     25 H           4.5900   15.3545   10.3183 H       1  UNL1        0.0000
     26 H           4.5918   16.1701    8.7619 H       1  UNL1        0.0000
     27 H           6.0193   15.2734    9.2842 H       1  UNL1        0.0000
@<TRIPOS>BOND
     1     5     4    1
     2     4    18    1
     3     4     6    1
     4     4     1    1
     5    20    19    1
     6     8     7    1
     7    19     1    1
     8    19    21    1
     9    19    22    1
    10     7     1    1
    11     7     9    1
    12     7    10    1
    13     1     3    1
    14     3     2    1
    15    23    11    1
    16    13    11    1
    17    11     2    1
    18    11    12    1
    19     2    24    1
    20     2    14    1
    21    26    24    1
    22    16    14    1
    23    27    24    1
    24    17    14    1
    25    24    25    1
    26    14    15    1
