@<TRIPOS>MOLECULE
3
 27 26 0 0 0
SMALL
GASTEIGER

@<TRIPOS>ATOM
      1 SI          2.4153    3.7922    3.0412 Si      1  UNL1        0.0000
      2 SI         -0.2394    2.4484    1.9315 Si      1  UNL1        0.0000
      3 N           1.1537    2.6267    2.9269 N.3     1  UNL1        0.0000
      4 C           3.5509    2.8752    4.2902 C.3     1  UNL1        0.0000
      5 H           2.9376    2.1797    4.8918 H       1  UNL1        0.0000
      6 H           4.0452    3.5452    4.9868 H       1  UNL1        0.0000
      7 H           4.3191    2.2956    3.7861 H       1  UNL1        0.0000
      8 C           3.3241    4.1438    1.3981 C.3     1  UNL1        0.0000
      9 H           3.6881    3.2346    0.9316 H       1  UNL1        0.0000
     10 H           4.1759    4.7965    1.5583 H       1  UNL1        0.0000
     11 H           2.6612    4.6354    0.6937 H       1  UNL1        0.0000
     12 C           1.8537    5.4641    3.7827 C.3     1  UNL1        0.0000
     13 H           1.0308    5.8838    3.2138 H       1  UNL1        0.0000
     14 H           2.6641    6.1857    3.7687 H       1  UNL1        0.0000
     15 H           1.5249    5.3557    4.8114 H       1  UNL1        0.0000
     16 C           0.1620    1.9877    0.1184 C.3     1  UNL1        0.0000
     17 H           0.8369    2.7126   -0.3244 H       1  UNL1        0.0000
     18 H          -0.7399    1.9676   -0.4851 H       1  UNL1        0.0000
     19 H           0.6300    1.0111    0.0460 H       1  UNL1        0.0000
     20 C          -1.4026    3.9638    1.9154 C.3     1  UNL1        0.0000
     21 H          -1.6993    4.2600    2.9160 H       1  UNL1        0.0000
     22 H          -2.3057    3.7539    1.3519 H       1  UNL1        0.0000
     23 H          -0.9142    4.8132    1.4493 H       1  UNL1        0.0000
     24 C          -1.0481    0.9521    2.8250 C.3     1  UNL1        0.0000
     25 H          -0.2651    0.3885    3.3651 H       1  UNL1        0.0000
     26 H          -1.5259    0.2558    2.1424 H       1  UNL1        0.0000
     27 H          -1.7928    1.2695    3.5496 H       1  UNL1        0.0000
@<TRIPOS>BOND
     1    18    16    1
     2    17    16    1
     3    19    16    1
     4    16     2    1
     5    11     8    1
     6     9     8    1
     7    22    20    1
     8     8    10    1
     9     8     1    1
    10    23    20    1
    11    20     2    1
    12    20    21    1
    13     2    24    1
    14     2     3    1
    15    26    24    1
    16    24    25    1
    17    24    27    1
    18     3     1    1
    19     1    12    1
    20     1     4    1
    21    13    12    1
    22    14    12    1
    23    12    15    1
    24     7     4    1
    25     4     5    1
    26     4     6    1
