@<TRIPOS>MOLECULE
1
 10 9 0 0 0
SMALL
GASTEIGER

@<TRIPOS>ATOM
      1 N          11.0275   11.5684   17.3546 N.3     1  UNL1       -0.3220
      2 C          12.3749   11.0316   17.1723 C.3     1  UNL1       -0.0161
      3 C          10.0976   10.4952   17.6901 C.3     1  UNL1       -0.0161
      4 H          10.7387   11.9606   16.4571 H       1  UNL1        0.1213
      5 H          12.6813   10.5139   18.0811 H       1  UNL1        0.0388
      6 H          13.0684   11.8481   16.9836 H       1  UNL1        0.0388
      7 H          12.4260   10.3226   16.3356 H       1  UNL1        0.0388
      8 H          10.1334    9.6767   16.9582 H       1  UNL1        0.0388
      9 H           9.0840   10.8850   17.7309 H       1  UNL1        0.0388
     10 H          10.3579   10.0894   18.6677 H       1  UNL1        0.0388
@<TRIPOS>BOND
     1     7     2    1
     2     4     1    1
     3     8     3    1
     4     6     2    1
     5     2     1    1
     6     2     5    1
     7     1     3    1
     8     3     9    1
     9     3    10    1
