@<TRIPOS>MOLECULE
1
 9 8 0 0 0
SMALL
GASTEIGER

@<TRIPOS>ATOM
      1 N          11.0840   16.1667   18.9078 N.3     1  UNL1       -0.2469
      2 C          11.7091   17.1046   18.0030 C.3     1  UNL1        0.0021
      3 C          10.6292   16.8603   20.0899 C.3     1  UNL1        0.0021
      4 H          11.0571   17.9728   17.8326 H       1  UNL1        0.0405
      5 H          11.9059   16.6280   17.0450 H       1  UNL1        0.0405
      6 H          12.6625   17.4755   18.4043 H       1  UNL1        0.0405
      7 H          11.4631   17.3579   20.6017 H       1  UNL1        0.0405
      8 H          10.1671   16.1559   20.7768 H       1  UNL1        0.0405
      9 H           9.8912   17.6327   19.8306 H       1  UNL1        0.0405
@<TRIPOS>BOND
     1     5     2    1
     2     4     2    1
     3     2     6    1
     4     2     1    1
     5     1     3    1
     6     9     3    1
     7     3     7    1
     8     3     8    1
