@<TRIPOS>MOLECULE
1
 9 8 0 0 0
SMALL
GASTEIGER

@<TRIPOS>ATOM
      1 N          10.9572   13.2303   20.2772 N.3     1  UNL1       -0.2469
      2 C          11.8445   12.1306   20.5954 C.3     1  UNL1        0.0021
      3 C          10.0999   13.4517   21.4269 C.3     1  UNL1        0.0021
      4 H          12.3651   12.3054   21.5450 H       1  UNL1        0.0405
      5 H          12.5859   12.0336   19.8106 H       1  UNL1        0.0405
      6 H          11.2864   11.1873   20.6938 H       1  UNL1        0.0405
      7 H           9.5746   12.5301   21.7157 H       1  UNL1        0.0405
      8 H           9.3612   14.2163   21.2022 H       1  UNL1        0.0405
      9 H          10.6870   13.7755   22.2974 H       1  UNL1        0.0405
@<TRIPOS>BOND
     1     5     2    1
     2     1     2    1
     3     1     3    1
     4     2     6    1
     5     2     4    1
     6     8     3    1
     7     3     7    1
     8     3     9    1
