@<TRIPOS>MOLECULE
1
 9 8 0 0 0
SMALL
GASTEIGER

@<TRIPOS>ATOM
      1 N           8.9357   14.2760   18.5711 N.3     1  UNL1       -0.2469
      2 C           8.0033   13.2949   19.0905 C.3     1  UNL1        0.0021
      3 C           8.1735   15.4029   18.0706 C.3     1  UNL1        0.0021
      4 H           7.4136   13.7101   19.9214 H       1  UNL1        0.0405
      5 H           8.5488   12.4259   19.4494 H       1  UNL1        0.0405
      6 H           7.2818   12.9730   18.3262 H       1  UNL1        0.0405
      7 H           7.4869   15.0977   17.2701 H       1  UNL1        0.0405
      8 H           8.8499   16.1559   17.6769 H       1  UNL1        0.0405
      9 H           7.5692   15.8511   18.8727 H       1  UNL1        0.0405
@<TRIPOS>BOND
     1     7     3    1
     2     8     3    1
     3     3     1    1
     4     3     9    1
     5     6     2    1
     6     1     2    1
     7     2     5    1
     8     2     4    1
