@<TRIPOS>MOLECULE
1
 9 8 0 0 0
SMALL
GASTEIGER

@<TRIPOS>ATOM
      1 N           6.9787    7.5722    6.0652 N.3     1  UNL1       -0.2469
      2 C           8.3953    7.6408    6.3740 C.3     1  UNL1        0.0021
      3 C           6.2149    7.6827    7.2871 C.3     1  UNL1        0.0021
      4 H           8.7016    6.8617    7.1008 H       1  UNL1        0.0405
      5 H           8.9924    7.5158    5.4587 H       1  UNL1        0.0405
      6 H           8.6581    8.6119    6.8378 H       1  UNL1        0.0405
      7 H           5.1432    7.6680    7.0750 H       1  UNL1        0.0405
      8 H           6.4376    6.8628    7.9986 H       1  UNL1        0.0405
      9 H           6.4488    8.6271    7.8157 H       1  UNL1        0.0405
@<TRIPOS>BOND
     1     5     2    1
     2     1     2    1
     3     1     3    1
     4     2     6    1
     5     2     4    1
     6     7     3    1
     7     3     9    1
     8     3     8    1
