@<TRIPOS>MOLECULE
1
 9 8 0 0 0
SMALL
GASTEIGER

@<TRIPOS>ATOM
      1 N           7.9541    5.3604    3.9581 N.3     1  UNL1       -0.2469
      2 C           8.6020    4.8429    2.7738 C.3     1  UNL1        0.0021
      3 C           8.3669    4.5804    5.1101 C.3     1  UNL1        0.0021
      4 H           8.3236    5.4243    1.8937 H       1  UNL1        0.0405
      5 H           9.7049    4.8693    2.8709 H       1  UNL1        0.0405
      6 H           8.3256    3.7870    2.5909 H       1  UNL1        0.0405
      7 H           9.4418    4.7250    5.3360 H       1  UNL1        0.0405
      8 H           7.7769    4.8596    5.9908 H       1  UNL1        0.0405
      9 H           8.2269    3.4988    4.9331 H       1  UNL1        0.0405
@<TRIPOS>BOND
     1     4     2    1
     2     6     2    1
     3     2     5    1
     4     2     1    1
     5     1     3    1
     6     9     3    1
     7     3     7    1
     8     3     8    1
