@<TRIPOS>MOLECULE
3
 41 42 0 0 0
SMALL
GASTEIGER

@<TRIPOS>ATOM
      1 SI          2.5060   11.1488    9.1814 Si      1  UNL1        0.0000
      2 SI          0.3590    9.0003    9.0577 Si      1  UNL1        0.0000
      3 N           1.5959    9.9563    8.3463 N.3     1  UNL1        0.0000
      4 C           3.9156   11.6736    7.9676 C.3     1  UNL1        0.0000
      5 C           3.3514   10.5906   10.8082 C.3     1  UNL1        0.0000
      6 C           1.5869   12.7545    9.6469 C.ar    1  UNL1        0.0000
      7 C           0.2622   12.9796    9.2940 C.ar    1  UNL1        0.0000
      8 C          -0.4014   14.1336    9.6704 C.ar    1  UNL1        0.0000
      9 C           0.2569   15.0982   10.4129 C.ar    1  UNL1        0.0000
     10 C           1.5803   14.8989   10.7685 C.ar    1  UNL1        0.0000
     11 C           2.2321   13.7400   10.3878 C.ar    1  UNL1        0.0000
     12 C          -0.3732    7.9722    7.6007 C.3     1  UNL1        0.0000
     13 C           0.9100    7.7599   10.4136 C.3     1  UNL1        0.0000
     14 C          -1.0167    9.9938    9.9220 C.ar    1  UNL1        0.0000
     15 C          -2.3207   10.1067    9.4542 C.ar    1  UNL1        0.0000
     16 C          -3.2621   10.8770   10.1152 C.ar    1  UNL1        0.0000
     17 C          -2.9156   11.5553   11.2699 C.ar    1  UNL1        0.0000
     18 C          -1.6250   11.4488   11.7603 C.ar    1  UNL1        0.0000
     19 C          -0.6955   10.6761   11.0911 C.ar    1  UNL1        0.0000
     20 H           4.8793   11.3137    8.3129 H       1  UNL1        0.0000
     21 H           3.7523   11.2828    6.9482 H       1  UNL1        0.0000
     22 H           3.9807   12.7549    7.8971 H       1  UNL1        0.0000
     23 H           3.7175    9.5724   10.7487 H       1  UNL1        0.0000
     24 H           4.1939   11.2282   11.0565 H       1  UNL1        0.0000
     25 H           2.6551   10.6404   11.6386 H       1  UNL1        0.0000
     26 H          -0.2593   12.2281    8.7241 H       1  UNL1        0.0000
     27 H          -1.4349   14.2767    9.3884 H       1  UNL1        0.0000
     28 H          -0.2567   16.0003   10.7137 H       1  UNL1        0.0000
     29 H           2.1028   15.6486   11.3467 H       1  UNL1        0.0000
     30 H           3.2642   13.5964   10.6746 H       1  UNL1        0.0000
     31 H           0.3098    7.9652    6.7342 H       1  UNL1        0.0000
     32 H          -1.3253    8.3665    7.2638 H       1  UNL1        0.0000
     33 H          -0.5390    6.9418    7.8968 H       1  UNL1        0.0000
     34 H           1.6396    7.0371   10.0631 H       1  UNL1        0.0000
     35 H           1.3572    8.2926   11.2450 H       1  UNL1        0.0000
     36 H           0.0606    7.2054   10.8018 H       1  UNL1        0.0000
     37 H          -2.6162    9.5828    8.5564 H       1  UNL1        0.0000
     38 H          -4.2688   10.9488    9.7269 H       1  UNL1        0.0000
     39 H          -3.6464   12.1616   11.7858 H       1  UNL1        0.0000
     40 H          -1.3433   11.9745   12.6616 H       1  UNL1        0.0000
     41 H           0.3112   10.6066   11.4737 H       1  UNL1        0.0000
@<TRIPOS>BOND
     1    31    12    1
     2    21     4    1
     3    32    12    1
     4    12    33    1
     5    12     2    1
     6    22     4    1
     7     4    20    1
     8     4     1    1
     9     3     2    1
    10     3     1    1
    11    37    15    1
    12    26     7    1
    13     2    14    1
    14     2    13    1
    15     1     6    1
    16     1     5    1
    17     7     6   ar
    18     7     8   ar
    19    27     8    1
    20    15    14   ar
    21    15    16   ar
    22     6    11   ar
    23     8     9   ar
    24    38    16    1
    25    14    19   ar
    26    34    13    1
    27    16    17   ar
    28    11    30    1
    29    11    10   ar
    30     9    28    1
    31     9    10   ar
    32    13    36    1
    33    13    35    1
    34    23     5    1
    35    10    29    1
    36     5    24    1
    37     5    25    1
    38    19    41    1
    39    19    18   ar
    40    17    18   ar
    41    17    39    1
    42    18    40    1
