@<TRIPOS>MOLECULE
3
 25 25 0 0 0
SMALL
GASTEIGER

@<TRIPOS>ATOM
      1 SI         -2.7325    2.3474    8.7200 Si      1  UNL1        0.0000
      2 SI         -2.7845   -0.0171    7.1493 Si      1  UNL1        0.0000
      3 N          -1.7464    1.0943    8.0063 N.3     1  UNL1        0.0000
      4 C          -2.6748    0.2018    5.2583 C.3     1  UNL1        0.0000
      5 H          -2.8258    1.2369    4.9698 H       1  UNL1        0.0000
      6 H          -3.4389   -0.3936    4.7694 H       1  UNL1        0.0000
      7 H          -1.7136   -0.1100    4.8677 H       1  UNL1        0.0000
      8 C          -3.1670    3.7603    7.4969 C.3     1  UNL1        0.0000
      9 H          -2.9422    4.7409    7.9031 H       1  UNL1        0.0000
     10 H          -4.2271    3.7393    7.2658 H       1  UNL1        0.0000
     11 H          -2.6293    3.6581    6.5599 H       1  UNL1        0.0000
     12 C          -1.7542    2.9926   10.2214 C.3     1  UNL1        0.0000
     13 H          -2.2665    2.7975   11.1554 H       1  UNL1        0.0000
     14 H          -1.5918    4.0609   10.1569 H       1  UNL1        0.0000
     15 H          -0.7827    2.4955   10.2524 H       1  UNL1        0.0000
     16 C          -4.3387    1.3706    9.0274 C.3     1  UNL1        0.0000
     17 H          -4.2342    0.6994    9.8799 H       1  UNL1        0.0000
     18 H          -5.2128    1.9924    9.2195 H       1  UNL1        0.0000
     19 C          -4.5176    0.5448    7.7508 C.3     1  UNL1        0.0000
     20 H          -4.9717    1.1748    6.9855 H       1  UNL1        0.0000
     21 H          -5.2058   -0.2844    7.9162 H       1  UNL1        0.0000
     22 C          -2.5480   -1.8399    7.6584 C.3     1  UNL1        0.0000
     23 H          -1.5346   -2.1917    7.5129 H       1  UNL1        0.0000
     24 H          -3.2000   -2.4688    7.0602 H       1  UNL1        0.0000
     25 H          -2.8077   -1.9964    8.7000 H       1  UNL1        0.0000
@<TRIPOS>BOND
     1     6     4    1
     2     7     4    1
     3     5     4    1
     4     4     2    1
     5    11     8    1
     6    20    19    1
     7    24    22    1
     8     2    22    1
     9     2    19    1
    10     2     3    1
    11    10     8    1
    12     8     9    1
    13     8     1    1
    14    23    22    1
    15    22    25    1
    16    19    21    1
    17    19    16    1
    18     3     1    1
    19     1    16    1
    20     1    12    1
    21    16    18    1
    22    16    17    1
    23    14    12    1
    24    12    15    1
    25    12    13    1
