@<TRIPOS>MOLECULE
3
 27 26 0 0 0
SMALL
GASTEIGER

@<TRIPOS>ATOM
      1 SI          0.0473    1.5208   -2.6742 Si      1  UNL1        0.0000
      2 SI          2.6634   -0.0037   -2.7995 Si      1  UNL1        0.0000
      3 N           1.6127    1.2486   -3.3250 N.3     1  UNL1        0.0000
      4 C          -0.9034    2.6188   -3.9370 C.3     1  UNL1        0.0000
      5 C          -0.9929   -0.0612   -2.3991 C.3     1  UNL1        0.0000
      6 C           0.0477    2.4635   -1.0032 C.3     1  UNL1        0.0000
      7 C           2.1338   -1.7647   -3.3358 C.3     1  UNL1        0.0000
      8 C           2.9598   -0.0548   -0.9068 C.3     1  UNL1        0.0000
      9 C           4.3529    0.3506   -3.6489 C.3     1  UNL1        0.0000
     10 H          -1.4544    2.0171   -4.6538 H       1  UNL1        0.0000
     11 H          -1.6221    3.2561   -3.4311 H       1  UNL1        0.0000
     12 H          -0.2140    3.2704   -4.4881 H       1  UNL1        0.0000
     13 H          -1.0101   -0.6835   -3.2872 H       1  UNL1        0.0000
     14 H          -2.0198    0.1717   -2.1368 H       1  UNL1        0.0000
     15 H          -0.5732   -0.6528   -1.5931 H       1  UNL1        0.0000
     16 H           0.4443    3.4670   -1.1139 H       1  UNL1        0.0000
     17 H          -0.9540    2.5475   -0.5932 H       1  UNL1        0.0000
     18 H           0.6601    1.9487   -0.2716 H       1  UNL1        0.0000
     19 H           1.8624   -1.7845   -4.3864 H       1  UNL1        0.0000
     20 H           1.2721   -2.0991   -2.7696 H       1  UNL1        0.0000
     21 H           2.9278   -2.4891   -3.1846 H       1  UNL1        0.0000
     22 H           2.0430   -0.3193   -0.3918 H       1  UNL1        0.0000
     23 H           3.7133   -0.7863   -0.6332 H       1  UNL1        0.0000
     24 H           3.2803    0.9098   -0.5266 H       1  UNL1        0.0000
     25 H           5.1031   -0.3744   -3.3449 H       1  UNL1        0.0000
     26 H           4.7337    1.3381   -3.3738 H       1  UNL1        0.0000
     27 H           4.2621    0.2831   -4.7360 H       1  UNL1        0.0000
@<TRIPOS>BOND
     1    27     9    1
     2    10     4    1
     3    12     4    1
     4    19     7    1
     5     4    11    1
     6     4     1    1
     7     9    26    1
     8     9    25    1
     9     9     2    1
    10     7    21    1
    11     7     2    1
    12     7    20    1
    13     3     2    1
    14     3     1    1
    15    13     5    1
    16     2     8    1
    17     1     5    1
    18     1     6    1
    19     5    14    1
    20     5    15    1
    21    16     6    1
    22     6    17    1
    23     6    18    1
    24     8    23    1
    25     8    24    1
    26     8    22    1
