@<TRIPOS>MOLECULE
3
 27 26 0 0 0
SMALL
GASTEIGER

@<TRIPOS>ATOM
      1 SI          4.8345    1.8590   -7.5925 Si      1  UNL1        0.0000
      2 SI          2.1044    0.5576   -7.7813 Si      1  UNL1        0.0000
      3 N           3.2470    1.5759   -7.0024 N.3     1  UNL1        0.0000
      4 C           5.8530    2.5947   -6.1344 C.3     1  UNL1        0.0000
      5 C           5.7553    0.2952   -8.1982 C.3     1  UNL1        0.0000
      6 C           4.9241    3.1269   -9.0295 C.3     1  UNL1        0.0000
      7 C           1.7966    0.9702   -9.6277 C.3     1  UNL1        0.0000
      8 C           2.5020   -1.3133   -7.6819 C.3     1  UNL1        0.0000
      9 C           0.4479    0.8249   -6.8399 C.3     1  UNL1        0.0000
     10 H           6.6250    3.2640   -6.5013 H       1  UNL1        0.0000
     11 H           5.2108    3.1709   -5.4568 H       1  UNL1        0.0000
     12 H           6.3474    1.8167   -5.5601 H       1  UNL1        0.0000
     13 H           5.7030   -0.5037   -7.4667 H       1  UNL1        0.0000
     14 H           6.8031    0.4959   -8.3968 H       1  UNL1        0.0000
     15 H           5.3106   -0.0720   -9.1163 H       1  UNL1        0.0000
     16 H           4.2862    2.8221   -9.8514 H       1  UNL1        0.0000
     17 H           5.9347    3.2205   -9.4148 H       1  UNL1        0.0000
     18 H           4.5995    4.1119   -8.7114 H       1  UNL1        0.0000
     19 H           1.5596    2.0198   -9.7686 H       1  UNL1        0.0000
     20 H           2.6844    0.7560  -10.2123 H       1  UNL1        0.0000
     21 H           0.9811    0.3873  -10.0432 H       1  UNL1        0.0000
     22 H           3.3253   -1.5696   -8.3386 H       1  UNL1        0.0000
     23 H           1.6508   -1.9227   -7.9687 H       1  UNL1        0.0000
     24 H           2.7879   -1.5962   -6.6739 H       1  UNL1        0.0000
     25 H          -0.3476    0.2234   -7.2718 H       1  UNL1        0.0000
     26 H           0.5429    0.5276   -5.7923 H       1  UNL1        0.0000
     27 H           0.1249    1.8681   -6.8966 H       1  UNL1        0.0000
@<TRIPOS>BOND
     1    20     7    1
     2    21     7    1
     3    16     6    1
     4    19     7    1
     5     7     2    1
     6    17     6    1
     7    15     5    1
     8     6    18    1
     9     6     1    1
    10    14     5    1
    11    22     8    1
    12     5     1    1
    13     5    13    1
    14    23     8    1
    15     2     8    1
    16     2     3    1
    17     2     9    1
    18     8    24    1
    19     1     3    1
    20     1     4    1
    21    25     9    1
    22    27     9    1
    23     9    26    1
    24    10     4    1
    25     4    12    1
    26     4    11    1
