@<TRIPOS>MOLECULE
1
 9 8 0 0 0
SMALL
GASTEIGER

@<TRIPOS>ATOM
      1 N           4.3994   11.0604    6.2832 N.3     1  UNL1       -0.2469
      2 C           3.8687   10.3543    7.4302 C.3     1  UNL1        0.0021
      3 C           3.5827   12.2353    6.0424 C.3     1  UNL1        0.0021
      4 H           4.5338    9.5442    7.7310 H       1  UNL1        0.0405
      5 H           3.7307   11.0189    8.3022 H       1  UNL1        0.0405
      6 H           2.8651    9.9288    7.2133 H       1  UNL1        0.0405
      7 H           3.8466   12.6856    5.0821 H       1  UNL1        0.0405
      8 H           3.6924   12.9955    6.8440 H       1  UNL1        0.0405
      9 H           2.5069   11.9730    6.0108 H       1  UNL1        0.0405
@<TRIPOS>BOND
     1     7     3    1
     2     9     3    1
     3     3     1    1
     4     3     8    1
     5     1     2    1
     6     6     2    1
     7     2     4    1
     8     2     5    1
