@<TRIPOS>MOLECULE
1
 9 8 0 0 0
SMALL
GASTEIGER

@<TRIPOS>ATOM
      1 N           2.2955    6.6961    9.7045 N.3     1  UNL1       -0.2469
      2 C           3.7143    6.8792    9.4757 C.3     1  UNL1        0.0021
      3 C           1.8969    7.5168   10.8351 C.3     1  UNL1        0.0021
      4 H           4.0823    6.1562    8.7453 H       1  UNL1        0.0405
      5 H           4.3027    6.7575   10.4032 H       1  UNL1        0.0405
      6 H           3.9416    7.9041    9.1106 H       1  UNL1        0.0405
      7 H           0.8077    7.5679   10.8954 H       1  UNL1        0.0405
      8 H           2.2976    7.1311   11.7951 H       1  UNL1        0.0405
      9 H           2.2791    8.5500   10.7326 H       1  UNL1        0.0405
@<TRIPOS>BOND
     1     4     2    1
     2     6     2    1
     3     2     1    1
     4     2     5    1
     5     1     3    1
     6     9     3    1
     7     3     7    1
     8     3     8    1
