@<TRIPOS>MOLECULE
1
 9 8 0 0 0
SMALL
GASTEIGER

@<TRIPOS>ATOM
      1 N           6.6139   12.9072    4.9005 N.3     1  UNL1       -0.2469
      2 C           6.9177   13.8318    5.9730 C.3     1  UNL1        0.0021
      3 C           5.9807   13.6358    3.8185 C.3     1  UNL1        0.0021
      4 H           7.3559   13.2980    6.8187 H       1  UNL1        0.0405
      5 H           6.0158   14.3716    6.3290 H       1  UNL1        0.0405
      6 H           7.6332   14.6087    5.6361 H       1  UNL1        0.0405
      7 H           5.5567   12.9416    3.0865 H       1  UNL1        0.0405
      8 H           5.1697   14.3005    4.1785 H       1  UNL1        0.0405
      9 H           6.7083   14.2958    3.3036 H       1  UNL1        0.0405
@<TRIPOS>BOND
     1     7     3    1
     2     9     3    1
     3     3     8    1
     4     3     1    1
     5     1     2    1
     6     6     2    1
     7     2     5    1
     8     2     4    1
