@<TRIPOS>MOLECULE
1
 9 8 0 0 0
SMALL
GASTEIGER

@<TRIPOS>ATOM
      1 N          -0.3126    5.0338   10.5453 N.3     1  UNL1       -0.2469
      2 C           0.1277    4.2592   11.6881 C.3     1  UNL1        0.0021
      3 C          -1.2880    6.0061   10.9997 C.3     1  UNL1        0.0021
      4 H           0.8652    3.5165   11.3812 H       1  UNL1        0.0405
      5 H           0.5793    4.8959   12.4764 H       1  UNL1        0.0405
      6 H          -0.7264    3.7342   12.1599 H       1  UNL1        0.0405
      7 H          -1.5070    6.7294   10.2103 H       1  UNL1        0.0405
      8 H          -0.9421    6.5601   11.8952 H       1  UNL1        0.0405
      9 H          -2.2337    5.5091   11.2979 H       1  UNL1        0.0405
@<TRIPOS>BOND
     1     7     3    1
     2     1     3    1
     3     1     2    1
     4     3     9    1
     5     3     8    1
     6     4     2    1
     7     2     6    1
     8     2     5    1
