@<TRIPOS>MOLECULE
1
 31 31 0 0 0
SMALL
GASTEIGER

@<TRIPOS>ATOM
      1 N          -2.0159   14.0830   18.7298 N.pl3   1  UNL1       -0.2660
      2 H          -2.2679   13.3559   18.0539 H       1  UNL1        0.1699
      3 C          -2.5707   13.7615   19.9332 C.ar    1  UNL1        0.0512
      4 C          -3.1445   12.4831   20.1953 C.ar    1  UNL1       -0.0222
      5 C          -3.7814   12.2468   21.4003 C.ar    1  UNL1       -0.0565
      6 H          -4.2412   11.2861   21.5799 H       1  UNL1        0.0621
      7 C          -3.8478   13.2104   22.3894 C.ar    1  UNL1       -0.0611
      8 H          -4.3519   13.0054   23.3219 H       1  UNL1        0.0618
      9 C          -3.2563   14.4419   22.1648 C.ar    1  UNL1       -0.0565
     10 H          -3.3085   15.1941   22.9381 H       1  UNL1        0.0621
     11 C          -2.6201   14.7318   20.9736 C.ar    1  UNL1       -0.0222
     12 C          -2.0326   16.1091   20.7529 C.3     1  UNL1       -0.0197
     13 H          -1.3327   16.0465   19.8994 H       1  UNL1        0.0344
     14 C          -1.2573   16.6371   21.9621 C.3     1  UNL1       -0.0586
     15 H          -1.9295   16.8933   22.7777 H       1  UNL1        0.0235
     16 H          -0.7124   17.5363   21.6821 H       1  UNL1        0.0235
     17 H          -0.5474   15.8975   22.3267 H       1  UNL1        0.0235
     18 C          -3.1451   17.0936   20.3788 C.3     1  UNL1       -0.0586
     19 H          -3.6869   16.7317   19.5096 H       1  UNL1        0.0235
     20 H          -2.7269   18.0718   20.1490 H       1  UNL1        0.0235
     21 H          -3.8482   17.1981   21.2032 H       1  UNL1        0.0235
     22 C          -3.0842   11.3699   19.1654 C.3     1  UNL1       -0.0197
     23 H          -2.2814   11.5828   18.4472 H       1  UNL1        0.0344
     24 C          -2.7573   10.0099   19.7901 C.3     1  UNL1       -0.0586
     25 H          -1.9052   10.0887   20.4631 H       1  UNL1        0.0235
     26 H          -2.5160    9.2928   19.0072 H       1  UNL1        0.0235
     27 H          -3.6010    9.6172   20.3516 H       1  UNL1        0.0235
     28 C          -4.4009   11.2908   18.3873 C.3     1  UNL1       -0.0586
     29 H          -4.3498   10.5147   17.6257 H       1  UNL1        0.0235
     30 H          -4.6103   12.2385   17.8968 H       1  UNL1        0.0235
     31 H          -5.2234   11.0662   19.0633 H       1  UNL1        0.0235
@<TRIPOS>BOND
     1    29    28    1
     2    30    28    1
     3     2     1    1
     4    28    31    1
     5    28    22    1
     6    23    22    1
     7     1     3    1
     8    26    24    1
     9    22    24    1
    10    22     4    1
    11    19    18    1
    12    24    27    1
    13    24    25    1
    14    13    12    1
    15     3     4   ar
    16     3    11   ar
    17    20    18    1
    18     4     5   ar
    19    18    12    1
    20    18    21    1
    21    12    11    1
    22    12    14    1
    23    11     9   ar
    24     5     6    1
    25     5     7   ar
    26    16    14    1
    27    14    17    1
    28    14    15    1
    29     9     7   ar
    30     9    10    1
    31     7     8    1
