@<TRIPOS>MOLECULE
1
 31 31 0 0 0
SMALL
GASTEIGER

@<TRIPOS>ATOM
      1 N           4.7131   14.9992    8.7245 N.pl3   1  UNL1       -0.2660
      2 H           4.8056   15.2483    7.7329 H       1  UNL1        0.1699
      3 C           5.5125   13.9106    8.9558 C.ar    1  UNL1        0.0512
      4 C           5.9164   13.0237    7.9137 C.ar    1  UNL1       -0.0222
      5 C           6.7558   11.9617    8.1965 C.ar    1  UNL1       -0.0565
      6 H           7.0708   11.3035    7.4010 H       1  UNL1        0.0621
      7 C           7.2046   11.7158    9.4811 C.ar    1  UNL1       -0.0611
      8 H           7.8552   10.8776    9.6826 H       1  UNL1        0.0618
      9 C           6.8291   12.5728   10.5007 C.ar    1  UNL1       -0.0565
     10 H           7.2113   12.3957   11.4949 H       1  UNL1        0.0621
     11 C           6.0048   13.6575   10.2674 C.ar    1  UNL1       -0.0222
     12 C           5.7258   14.6462   11.3808 C.3     1  UNL1       -0.0197
     13 H           4.7885   15.1690   11.1426 H       1  UNL1        0.0344
     14 C           5.6083   13.9983   12.7632 C.3     1  UNL1       -0.0586
     15 H           4.9888   13.1036   12.7360 H       1  UNL1        0.0235
     16 H           5.1757   14.7059   13.4694 H       1  UNL1        0.0235
     17 H           6.5881   13.7178   13.1440 H       1  UNL1        0.0235
     18 C           6.8463   15.6900   11.4118 C.3     1  UNL1       -0.0586
     19 H           7.8002   15.2136   11.6330 H       1  UNL1        0.0235
     20 H           6.6471   16.4447   12.1707 H       1  UNL1        0.0235
     21 H           6.9200   16.1761   10.4452 H       1  UNL1        0.0235
     22 C           5.4467   13.2526    6.4898 C.3     1  UNL1       -0.0197
     23 H           4.4806   13.7741    6.5168 H       1  UNL1        0.0344
     24 C           6.4563   14.1330    5.7446 C.3     1  UNL1       -0.0586
     25 H           6.6182   15.0702    6.2726 H       1  UNL1        0.0235
     26 H           6.1005   14.3567    4.7406 H       1  UNL1        0.0235
     27 H           7.4134   13.6198    5.6699 H       1  UNL1        0.0235
     28 C           5.2161   11.9584    5.7069 C.3     1  UNL1       -0.0586
     29 H           6.1562   11.4869    5.4309 H       1  UNL1        0.0235
     30 H           4.6717   12.1837    4.7924 H       1  UNL1        0.0235
     31 H           4.6282   11.2522    6.2885 H       1  UNL1        0.0235
@<TRIPOS>BOND
     1    26    24    1
     2    30    28    1
     3    29    28    1
     4    27    24    1
     5    28    31    1
     6    28    22    1
     7    24    25    1
     8    24    22    1
     9    22    23    1
    10    22     4    1
    11     6     5    1
    12     2     1    1
    13     4     5   ar
    14     4     3   ar
    15     5     7   ar
    16     1     3    1
    17     3    11   ar
    18     7     8    1
    19     7     9   ar
    20    11     9   ar
    21    11    12    1
    22    21    18    1
    23     9    10    1
    24    13    12    1
    25    12    18    1
    26    12    14    1
    27    18    19    1
    28    18    20    1
    29    15    14    1
    30    14    17    1
    31    14    16    1
