@<TRIPOS>MOLECULE
1
 31 31 0 0 0
SMALL
GASTEIGER

@<TRIPOS>ATOM
      1 N          11.5088   14.5990    2.9400 N.pl3   1  UNL1       -0.2660
      2 H          10.9344   14.9078    2.1501 H       1  UNL1        0.1699
      3 C          10.6905   14.4205    4.0183 C.ar    1  UNL1        0.0512
      4 C          11.2435   14.2673    5.3210 C.ar    1  UNL1       -0.0222
      5 C          10.4139   14.1220    6.4163 C.ar    1  UNL1       -0.0565
      6 H          10.8465   14.0203    7.4012 H       1  UNL1        0.0621
      7 C           9.0366   14.1255    6.2908 C.ar    1  UNL1       -0.0611
      8 H           8.4041   14.0189    7.1594 H       1  UNL1        0.0618
      9 C           8.4835   14.2853    5.0346 C.ar    1  UNL1       -0.0565
     10 H           7.4076   14.3078    4.9408 H       1  UNL1        0.0621
     11 C           9.2686   14.4180    3.9032 C.ar    1  UNL1       -0.0222
     12 C           8.5714   14.5974    2.5662 C.3     1  UNL1       -0.0197
     13 H           9.2843   14.4269    1.7490 H       1  UNL1        0.0344
     14 C           8.0478   16.0315    2.4398 C.3     1  UNL1       -0.0586
     15 H           7.5891   16.1893    1.4650 H       1  UNL1        0.0235
     16 H           8.8603   16.7448    2.5647 H       1  UNL1        0.0235
     17 H           7.3049   16.2296    3.2093 H       1  UNL1        0.0235
     18 C           7.4316   13.5956    2.3559 C.3     1  UNL1       -0.0586
     19 H           7.0717   13.6531    1.3294 H       1  UNL1        0.0235
     20 H           6.5920   13.8027    3.0137 H       1  UNL1        0.0235
     21 H           7.7719   12.5791    2.5460 H       1  UNL1        0.0235
     22 C          12.7397   14.3389    5.5477 C.3     1  UNL1       -0.0197
     23 H          13.2399   14.3385    4.5630 H       1  UNL1        0.0344
     24 C          13.0940   15.6415    6.2729 C.3     1  UNL1       -0.0586
     25 H          12.6784   16.4930    5.7429 H       1  UNL1        0.0235
     26 H          14.1743   15.7595    6.3401 H       1  UNL1        0.0235
     27 H          12.6847   15.6374    7.2812 H       1  UNL1        0.0235
     28 C          13.2780   13.1522    6.3504 C.3     1  UNL1       -0.0586
     29 H          13.0150   12.2097    5.8754 H       1  UNL1        0.0235
     30 H          12.8750   13.1460    7.3606 H       1  UNL1        0.0235
     31 H          14.3624   13.2138    6.4170 H       1  UNL1        0.0235
@<TRIPOS>BOND
     1    19    18    1
     2    15    14    1
     3    13    12    1
     4     2     1    1
     5    18    21    1
     6    18    12    1
     7    18    20    1
     8    14    16    1
     9    14    12    1
    10    14    17    1
    11    12    11    1
    12     1     3    1
    13    11     3   ar
    14    11     9   ar
    15     3     4   ar
    16    23    22    1
    17    10     9    1
    18     9     7   ar
    19     4    22    1
    20     4     5   ar
    21    22    24    1
    22    22    28    1
    23    25    24    1
    24    29    28    1
    25    24    26    1
    26    24    27    1
    27     7     5   ar
    28     7     8    1
    29    28    31    1
    30    28    30    1
    31     5     6    1
