@<TRIPOS>MOLECULE
1
 31 31 0 0 0
SMALL
GASTEIGER

@<TRIPOS>ATOM
      1 N           5.2510   10.2591   13.8418 N.pl3   1  UNL1       -0.2660
      2 H           5.4403    9.3905   14.3516 H       1  UNL1        0.1699
      3 C           5.9003   10.1898   12.6423 C.ar    1  UNL1        0.0512
      4 C           6.4891    8.9797   12.1666 C.ar    1  UNL1       -0.0222
      5 C           7.1996    8.9736   10.9794 C.ar    1  UNL1       -0.0565
      6 H           7.6625    8.0572   10.6428 H       1  UNL1        0.0621
      7 C           7.3361   10.1094   10.2049 C.ar    1  UNL1       -0.0611
      8 H           7.8928   10.0814    9.2804 H       1  UNL1        0.0618
      9 C           6.7459   11.2827   10.6394 C.ar    1  UNL1       -0.0565
     10 H           6.8543   12.1734   10.0375 H       1  UNL1        0.0621
     11 C           6.0392   11.3472   11.8251 C.ar    1  UNL1       -0.0222
     12 C           5.4697   12.6842   12.2510 C.3     1  UNL1       -0.0197
     13 H           4.8804   12.5306   13.1719 H       1  UNL1        0.0344
     14 C           4.5487   13.2913   11.1891 C.3     1  UNL1       -0.0586
     15 H           5.1025   13.5301   10.2841 H       1  UNL1        0.0235
     16 H           4.1044   14.2095   11.5683 H       1  UNL1        0.0235
     17 H           3.7511   12.6029   10.9208 H       1  UNL1        0.0235
     18 C           6.6013   13.6717   12.5553 C.3     1  UNL1       -0.0586
     19 H           7.3131   13.2319   13.2468 H       1  UNL1        0.0235
     20 H           6.2014   14.5854   12.9921 H       1  UNL1        0.0235
     21 H           7.1340   13.9326   11.6430 H       1  UNL1        0.0235
     22 C           6.3828    7.6714   12.9310 C.3     1  UNL1       -0.0197
     23 H           5.6374    7.7634   13.7316 H       1  UNL1        0.0344
     24 C           5.9115    6.5191   12.0369 C.3     1  UNL1       -0.0586
     25 H           5.0071    6.7954   11.4974 H       1  UNL1        0.0235
     26 H           5.6977    5.6400   12.6434 H       1  UNL1        0.0235
     27 H           6.6700    6.2454   11.3085 H       1  UNL1        0.0235
     28 C           7.7284    7.3268   13.5765 C.3     1  UNL1       -0.0586
     29 H           7.6462    6.4258   14.1828 H       1  UNL1        0.0235
     30 H           8.0667    8.1458   14.2084 H       1  UNL1        0.0235
     31 H           8.4829    7.1604   12.8110 H       1  UNL1        0.0235
@<TRIPOS>BOND
     1     8     7    1
     2    10     9    1
     3     7     9   ar
     4     7     5   ar
     5    15    14    1
     6     9    11   ar
     7     6     5    1
     8    17    14    1
     9     5     4   ar
    10    14    16    1
    11    14    12    1
    12    27    24    1
    13    25    24    1
    14    21    18    1
    15    11    12    1
    16    11     3   ar
    17    24    26    1
    18    24    22    1
    19     4     3   ar
    20     4    22    1
    21    12    18    1
    22    12    13    1
    23    18    20    1
    24    18    19    1
    25     3     1    1
    26    31    28    1
    27    22    28    1
    28    22    23    1
    29    28    29    1
    30    28    30    1
    31     1     2    1
