@<TRIPOS>MOLECULE
1
 31 31 0 0 0
SMALL
GASTEIGER

@<TRIPOS>ATOM
      1 N          -3.6536    5.1825    9.2162 N.pl3   1  UNL1       -0.2660
      2 H          -2.7346    4.7643    9.0433 H       1  UNL1        0.1699
      3 C          -4.1423    5.6518    8.0317 C.ar    1  UNL1        0.0512
      4 C          -3.5452    5.3442    6.7738 C.ar    1  UNL1       -0.0222
      5 C          -4.0315    5.9236    5.6148 C.ar    1  UNL1       -0.0565
      6 H          -3.5522    5.7049    4.6715 H       1  UNL1        0.0621
      7 C          -5.1169    6.7778    5.6251 C.ar    1  UNL1       -0.0611
      8 H          -5.4778    7.2206    4.7089 H       1  UNL1        0.0618
      9 C          -5.7328    7.0535    6.8334 C.ar    1  UNL1       -0.0565
     10 H          -6.5815    7.7212    6.8448 H       1  UNL1        0.0621
     11 C          -5.2792    6.5095    8.0190 C.ar    1  UNL1       -0.0222
     12 C          -5.9675    6.8839    9.3133 C.3     1  UNL1       -0.0197
     13 H          -5.6627    6.1533   10.0843 H       1  UNL1        0.0344
     14 C          -5.5043    8.2715    9.7672 C.3     1  UNL1       -0.0586
     15 H          -4.4230    8.2890    9.8719 H       1  UNL1        0.0235
     16 H          -5.9532    8.5280   10.7246 H       1  UNL1        0.0235
     17 H          -5.7910    9.0229    9.0337 H       1  UNL1        0.0235
     18 C          -7.4943    6.8521    9.2108 C.3     1  UNL1       -0.0586
     19 H          -7.8646    7.6753    8.6045 H       1  UNL1        0.0235
     20 H          -7.9294    6.9445   10.2034 H       1  UNL1        0.0235
     21 H          -7.8363    5.9205    8.7645 H       1  UNL1        0.0235
     22 C          -2.3673    4.3950    6.6513 C.3     1  UNL1       -0.0197
     23 H          -2.2475    3.8321    7.5853 H       1  UNL1        0.0344
     24 C          -1.0765    5.1807    6.4009 C.3     1  UNL1       -0.0586
     25 H          -1.1785    5.8006    5.5127 H       1  UNL1        0.0235
     26 H          -0.2361    4.5047    6.2482 H       1  UNL1        0.0235
     27 H          -0.8580    5.8307    7.2458 H       1  UNL1        0.0235
     28 C          -2.5799    3.3577    5.5422 C.3     1  UNL1       -0.0586
     29 H          -3.5676    2.9068    5.6214 H       1  UNL1        0.0235
     30 H          -1.8330    2.5686    5.6196 H       1  UNL1        0.0235
     31 H          -2.4905    3.8068    4.5566 H       1  UNL1        0.0235
@<TRIPOS>BOND
     1    31    28    1
     2     6     5    1
     3     8     7    1
     4    25    24    1
     5    28    30    1
     6    28    29    1
     7    28    22    1
     8     5     7   ar
     9     5     4   ar
    10     7     9   ar
    11    26    24    1
    12    24    22    1
    13    24    27    1
    14    22     4    1
    15    22    23    1
    16     4     3   ar
    17     9    10    1
    18     9    11   ar
    19    11     3   ar
    20    11    12    1
    21     3     1    1
    22    19    18    1
    23    21    18    1
    24    17    14    1
    25     2     1    1
    26    18    12    1
    27    18    20    1
    28    12    14    1
    29    12    13    1
    30    14    15    1
    31    14    16    1
