@<TRIPOS>MOLECULE
3
 21 20 0 0 0
SMALL
GASTEIGER

@<TRIPOS>ATOM
      1 SI          7.9775    2.8171    7.1047 Si      1  UNL1        0.0000
      2 SI          5.1410    3.9069    7.0336 Si      1  UNL1        0.0000
      3 N           6.4496    3.0285    6.3348 N.3     1  UNL1        0.0000
      4 C           7.9035    2.3734    8.9548 C.3     1  UNL1        0.0000
      5 C           9.1390    4.3301    6.9787 C.3     1  UNL1        0.0000
      6 C           4.3216    3.0746    8.5419 C.3     1  UNL1        0.0000
      7 C           5.5588    5.6901    7.5626 C.3     1  UNL1        0.0000
      8 H           8.6386    1.6795    6.3665 H       1  UNL1        0.0000
      9 H           4.1048    3.9751    5.9208 H       1  UNL1        0.0000
     10 H           7.2160    1.5569    9.1484 H       1  UNL1        0.0000
     11 H           7.5765    3.2239    9.5442 H       1  UNL1        0.0000
     12 H           8.8802    2.0757    9.3228 H       1  UNL1        0.0000
     13 H           9.4107    4.5588    5.9527 H       1  UNL1        0.0000
     14 H          10.0600    4.1539    7.5252 H       1  UNL1        0.0000
     15 H           8.6725    5.2158    7.3978 H       1  UNL1        0.0000
     16 H           4.1843    2.0098    8.3865 H       1  UNL1        0.0000
     17 H           3.3476    3.5088    8.7457 H       1  UNL1        0.0000
     18 H           4.9276    3.1975    9.4335 H       1  UNL1        0.0000
     19 H           6.0589    6.2376    6.7707 H       1  UNL1        0.0000
     20 H           6.2143    5.6916    8.4275 H       1  UNL1        0.0000
     21 H           4.6624    6.2399    7.8307 H       1  UNL1        0.0000
@<TRIPOS>BOND
     1     9     2    1
     2    13     5    1
     3     3     2    1
     4     3     1    1
     5     8     1    1
     6    19     7    1
     7     5     1    1
     8     5    15    1
     9     5    14    1
    10     2     7    1
    11     2     6    1
    12     1     4    1
    13     7    21    1
    14     7    20    1
    15    16     6    1
    16     6    17    1
    17     6    18    1
    18     4    10    1
    19     4    12    1
    20     4    11    1
