@<TRIPOS>MOLECULE
3
 21 20 0 0 0
SMALL
GASTEIGER

@<TRIPOS>ATOM
      1 SI          0.0517    0.1597    3.5619 Si      1  UNL1        0.0000
      2 SI          1.5495    1.7863    5.6787 Si      1  UNL1        0.0000
      3 N           1.2853    1.2548    4.0608 N.3     1  UNL1        0.0000
      4 C          -1.7166    0.8728    3.6871 C.3     1  UNL1        0.0000
      5 C           0.0421   -1.5227    4.4520 C.3     1  UNL1        0.0000
      6 C           0.1504    2.8845    6.3757 C.3     1  UNL1        0.0000
      7 C           1.8677    0.4040    6.9485 C.3     1  UNL1        0.0000
      8 H           0.3341   -0.0796    2.0923 H       1  UNL1        0.0000
      9 H           2.7934    2.6485    5.5911 H       1  UNL1        0.0000
     10 H          -1.7764    1.8714    3.2636 H       1  UNL1        0.0000
     11 H          -2.0388    0.9389    4.7212 H       1  UNL1        0.0000
     12 H          -2.4319    0.2482    3.1615 H       1  UNL1        0.0000
     13 H           1.0397   -1.9423    4.5210 H       1  UNL1        0.0000
     14 H          -0.5808   -2.2366    3.9231 H       1  UNL1        0.0000
     15 H          -0.3460   -1.4325    5.4607 H       1  UNL1        0.0000
     16 H          -0.1390    3.6583    5.6703 H       1  UNL1        0.0000
     17 H           0.4533    3.3733    7.2961 H       1  UNL1        0.0000
     18 H          -0.7350    2.2963    6.5942 H       1  UNL1        0.0000
     19 H           2.5625   -0.3356    6.5662 H       1  UNL1        0.0000
     20 H           0.9498   -0.1125    7.2069 H       1  UNL1        0.0000
     21 H           2.2860    0.8081    7.8644 H       1  UNL1        0.0000
@<TRIPOS>BOND
     1     8     1    1
     2    12     4    1
     3    10     4    1
     4     1     4    1
     5     1     3    1
     6     1     5    1
     7     4    11    1
     8    14     5    1
     9     3     2    1
    10     5    13    1
    11     5    15    1
    12     9     2    1
    13    16     6    1
    14     2     6    1
    15     2     7    1
    16     6    18    1
    17     6    17    1
    18    19     7    1
    19     7    20    1
    20     7    21    1
