@<TRIPOS>MOLECULE
3
 21 20 0 0 0
SMALL
GASTEIGER

@<TRIPOS>ATOM
      1 SI          3.1472    3.4426    4.2531 Si      1  UNL1        0.0000
      2 SI          3.9489    4.0630    7.0554 Si      1  UNL1        0.0000
      3 N           3.1050    4.4966    5.6224 N.3     1  UNL1        0.0000
      4 C           4.8639    3.4416    3.4265 C.3     1  UNL1        0.0000
      5 C           2.6968    1.6312    4.6101 C.3     1  UNL1        0.0000
      6 C           3.8159    5.5969    8.2007 C.3     1  UNL1        0.0000
      7 C           3.3007    2.5429    7.9950 C.3     1  UNL1        0.0000
      8 H           2.1393    3.9738    3.2889 H       1  UNL1        0.0000
      9 H           5.4040    3.8515    6.8501 H       1  UNL1        0.0000
     10 H           5.1745    4.4402    3.1368 H       1  UNL1        0.0000
     11 H           4.8662    2.8271    2.5328 H       1  UNL1        0.0000
     12 H           5.6131    3.0448    4.1039 H       1  UNL1        0.0000
     13 H           1.8377    1.5602    5.2664 H       1  UNL1        0.0000
     14 H           3.5196    1.1083    5.0858 H       1  UNL1        0.0000
     15 H           2.4572    1.1051    3.6919 H       1  UNL1        0.0000
     16 H           4.6109    6.3087    7.9879 H       1  UNL1        0.0000
     17 H           3.9177    5.3029    9.2401 H       1  UNL1        0.0000
     18 H           2.8406    6.1007    8.1096 H       1  UNL1        0.0000
     19 H           3.6097    1.6286    7.5018 H       1  UNL1        0.0000
     20 H           2.2181    2.5364    8.0527 H       1  UNL1        0.0000
     21 H           3.6811    2.5145    9.0110 H       1  UNL1        0.0000
@<TRIPOS>BOND
     1    11     4    1
     2    10     4    1
     3     8     1    1
     4     4    12    1
     5     4     1    1
     6    15     5    1
     7     1     5    1
     8     1     3    1
     9     5    14    1
    10     5    13    1
    11     3     2    1
    12     9     2    1
    13     2     7    1
    14     2     6    1
    15    19     7    1
    16    16     6    1
    17     7    20    1
    18     7    21    1
    19    18     6    1
    20     6    17    1
