@<TRIPOS>MOLECULE
1
 21 20 0 0 0
SMALL
GASTEIGER

@<TRIPOS>ATOM
      1 N          14.4387   12.7015   10.4258 N.3     1  UNL1       -0.2348
      2 C          15.7320   12.0803   10.1826 C.3     1  UNL1        0.0200
      3 C          16.7635   12.5160   11.2279 C.3     1  UNL1       -0.0484
      4 C          15.6353   10.5409   10.1771 C.3     1  UNL1       -0.0484
      5 C          13.6760   12.8247    9.1927 C.3     1  UNL1        0.0200
      6 C          14.0578   14.0970    8.4088 C.3     1  UNL1       -0.0484
      7 C          12.1696   12.8378    9.4703 C.3     1  UNL1       -0.0484
      8 H          16.1148   12.3890    9.1925 H       1  UNL1        0.0471
      9 H          16.4059   12.2537   12.2277 H       1  UNL1        0.0245
     10 H          17.7155   12.0162   11.0525 H       1  UNL1        0.0245
     11 H          16.9239   13.5932   11.1748 H       1  UNL1        0.0245
     12 H          15.2570   10.2007   11.1366 H       1  UNL1        0.0245
     13 H          14.9527   10.2047    9.4003 H       1  UNL1        0.0245
     14 H          16.6103   10.0938    9.9951 H       1  UNL1        0.0245
     15 H          13.8834   11.9594    8.5368 H       1  UNL1        0.0471
     16 H          15.1118   14.0787    8.1419 H       1  UNL1        0.0245
     17 H          13.4730   14.1773    7.4948 H       1  UNL1        0.0245
     18 H          13.8765   14.9693    9.0299 H       1  UNL1        0.0245
     19 H          11.9279   13.6663   10.1424 H       1  UNL1        0.0245
     20 H          11.6139   12.9644    8.5419 H       1  UNL1        0.0245
     21 H          11.8619   11.8991    9.9318 H       1  UNL1        0.0245
@<TRIPOS>BOND
     1    17     6    1
     2    16     6    1
     3     6    18    1
     4     6     5    1
     5    15     5    1
     6    20     7    1
     7     8     2    1
     8     5     7    1
     9     5     1    1
    10    13     4    1
    11     7    21    1
    12     7    19    1
    13    14     4    1
    14     4     2    1
    15     4    12    1
    16     2     1    1
    17     2     3    1
    18    10     3    1
    19    11     3    1
    20     3     9    1
