@<TRIPOS>MOLECULE
7
 27 26 0 0 0
SMALL
GASTEIGER

@<TRIPOS>ATOM
      1 SI          0.7640   11.7337    3.0760 Si      1  UNL1        0.0000
      2 SI          1.1517   10.2282    5.7914 Si      1  UNL1        0.0000
      3 C           1.9980    8.6370    5.1483 C.3     1  UNL1        0.0000
      4 H           1.2835    7.9311    4.7390 H       1  UNL1        0.0000
      5 H           2.5421    8.1365    5.9424 H       1  UNL1        0.0000
      6 H           2.7074    8.8760    4.3633 H       1  UNL1        0.0000
      7 N           0.2444   11.0280    4.5604 N.3     1  UNL1        0.0000
      8 C           2.5942   12.2729    3.0123 C.3     1  UNL1        0.0000
      9 H           2.8170   13.0009    3.7840 H       1  UNL1        0.0000
     10 H           2.8403   12.7183    2.0535 H       1  UNL1        0.0000
     11 H           3.2511   11.4223    3.1590 H       1  UNL1        0.0000
     12 C          -0.3583   13.2661    2.8579 C.3     1  UNL1        0.0000
     13 H          -1.4059   13.0003    2.9944 H       1  UNL1        0.0000
     14 H          -0.2575   13.7271    1.8818 H       1  UNL1        0.0000
     15 H          -0.1161   14.0129    3.6073 H       1  UNL1        0.0000
     16 C           2.4998   11.3639    6.5347 C.3     1  UNL1        0.0000
     17 H           2.9274   10.9410    7.4386 H       1  UNL1        0.0000
     18 H           2.0697   12.3275    6.7871 H       1  UNL1        0.0000
     19 H           3.3116   11.5343    5.8366 H       1  UNL1        0.0000
     20 C           0.4965   10.5272    1.6051 C.3     1  UNL1        0.0000
     21 H           1.0025    9.5838    1.7830 H       1  UNL1        0.0000
     22 H           0.8963   10.9440    0.6863 H       1  UNL1        0.0000
     23 H          -0.5535   10.3105    1.4333 H       1  UNL1        0.0000
     24 C          -0.1032    9.8547    7.1829 C.3     1  UNL1        0.0000
     25 H          -0.4753    8.8378    7.1495 H       1  UNL1        0.0000
     26 H          -0.9517   10.5320    7.0903 H       1  UNL1        0.0000
     27 H           0.3392   10.0060    8.1607 H       1  UNL1        0.0000
@<TRIPOS>BOND
     1    22    20    1
     2    23    20    1
     3    20    21    1
     4    20     1    1
     5    14    12    1
     6    10     8    1
     7    12    13    1
     8    12     1    1
     9    12    15    1
    10     8     1    1
    11     8    11    1
    12     8     9    1
    13     1     7    1
    14     6     3    1
    15     7     2    1
    16     4     3    1
    17     3     2    1
    18     3     5    1
    19     2    16    1
    20     2    24    1
    21    19    16    1
    22    16    18    1
    23    16    17    1
    24    26    24    1
    25    25    24    1
    26    24    27    1
