@<TRIPOS>MOLECULE
3
 27 26 0 0 0
SMALL
GASTEIGER

@<TRIPOS>ATOM
      1 SI         10.4218    3.8289   13.0655 Si      1  UNL1        0.0000
      2 SI          9.9620    2.3807   10.3428 Si      1  UNL1        0.0000
      3 N           9.6313    3.5666   11.5555 N.3     1  UNL1        0.0000
      4 C          10.1653    2.3843   14.2908 C.3     1  UNL1        0.0000
      5 H           9.1316    2.0570   14.2309 H       1  UNL1        0.0000
      6 H          10.3688    2.6729   15.3172 H       1  UNL1        0.0000
      7 H          10.7971    1.5353   14.0555 H       1  UNL1        0.0000
      8 C           9.4998    5.3293   13.8179 C.3     1  UNL1        0.0000
      9 H           9.5993    6.2184   13.2042 H       1  UNL1        0.0000
     10 H           9.8663    5.5726   14.8087 H       1  UNL1        0.0000
     11 H           8.4408    5.0855   13.9079 H       1  UNL1        0.0000
     12 C          12.2832    4.2053   12.8631 C.3     1  UNL1        0.0000
     13 H          12.8034    3.3443   12.4590 H       1  UNL1        0.0000
     14 H          12.7385    4.4510   13.8163 H       1  UNL1        0.0000
     15 H          12.4524    5.0378   12.1892 H       1  UNL1        0.0000
     16 C          10.5418    0.7210   11.0921 C.3     1  UNL1        0.0000
     17 H          11.4927    0.8331   11.6020 H       1  UNL1        0.0000
     18 H          10.6654   -0.0391   10.3273 H       1  UNL1        0.0000
     19 H           9.8191    0.3556   11.8128 H       1  UNL1        0.0000
     20 C          11.3276    2.9603    9.1293 C.3     1  UNL1        0.0000
     21 H          10.9958    3.7767    8.4970 H       1  UNL1        0.0000
     22 H          11.6310    2.1461    8.4798 H       1  UNL1        0.0000
     23 H          12.2072    3.2964    9.6675 H       1  UNL1        0.0000
     24 C           8.3053    2.1057    9.4432 C.3     1  UNL1        0.0000
     25 H           7.5046    2.0644   10.1781 H       1  UNL1        0.0000
     26 H           8.2930    1.1834    8.8739 H       1  UNL1        0.0000
     27 H           8.0789    2.9207    8.7684 H       1  UNL1        0.0000
@<TRIPOS>BOND
     1    22    20    1
     2    21    20    1
     3    27    24    1
     4    26    24    1
     5    20    23    1
     6    20     2    1
     7    24    25    1
     8    24     2    1
     9    18    16    1
    10     2    16    1
    11     2     3    1
    12    16    17    1
    13    16    19    1
    14     3     1    1
    15    15    12    1
    16    13    12    1
    17    12     1    1
    18    12    14    1
    19     1     8    1
    20     1     4    1
    21     9     8    1
    22     8    11    1
    23     8    10    1
    24     7     4    1
    25     5     4    1
    26     4     6    1
