@<TRIPOS>MOLECULE
3
 27 26 0 0 0
SMALL
GASTEIGER

@<TRIPOS>ATOM
      1 SI          3.9031    8.7893    0.3552 Si      1  UNL1        0.0000
      2 SI          2.0517    9.1181    2.9080 Si      1  UNL1        0.0000
      3 N           2.8840    8.3432    1.6424 N.3     1  UNL1        0.0000
      4 C           5.2085   10.1516    0.6669 C.3     1  UNL1        0.0000
      5 H           4.7258   11.1011    0.8724 H       1  UNL1        0.0000
      6 H           5.8719   10.2944   -0.1810 H       1  UNL1        0.0000
      7 H           5.8124    9.8955    1.5294 H       1  UNL1        0.0000
      8 C           2.8784    9.3026   -1.1755 C.3     1  UNL1        0.0000
      9 H           2.1955    8.5190   -1.4840 H       1  UNL1        0.0000
     10 H           3.5185    9.5370   -2.0190 H       1  UNL1        0.0000
     11 H           2.2880   10.1840   -0.9543 H       1  UNL1        0.0000
     12 C           4.8247    7.1438   -0.0227 C.3     1  UNL1        0.0000
     13 H           5.2300    6.7241    0.9081 H       1  UNL1        0.0000
     14 H           5.6596    7.2786   -0.7014 H       1  UNL1        0.0000
     15 H           4.1557    6.4092   -0.4603 H       1  UNL1        0.0000
     16 C           0.3435    9.7423    2.3168 C.3     1  UNL1        0.0000
     17 H           0.4641   10.4983    1.5497 H       1  UNL1        0.0000
     18 H          -0.2187   10.1854    3.1316 H       1  UNL1        0.0000
     19 H          -0.2547    8.9412    1.8971 H       1  UNL1        0.0000
     20 C           2.9232   10.5637    3.8068 C.3     1  UNL1        0.0000
     21 H           3.9068   10.2536    4.1396 H       1  UNL1        0.0000
     22 H           2.3667   10.9124    4.6718 H       1  UNL1        0.0000
     23 H           3.0523   11.4063    3.1357 H       1  UNL1        0.0000
     24 C           1.7976    7.6851    4.1656 C.3     1  UNL1        0.0000
     25 H           1.0912    6.9518    3.7889 H       1  UNL1        0.0000
     26 H           1.4353    8.0318    5.1270 H       1  UNL1        0.0000
     27 H           2.7541    7.1762    4.3457 H       1  UNL1        0.0000
@<TRIPOS>BOND
     1    10     8    1
     2     9     8    1
     3     8    11    1
     4     8     1    1
     5    14    12    1
     6    15    12    1
     7     6     4    1
     8    12     1    1
     9    12    13    1
    10     1     4    1
    11     1     3    1
    12     4     5    1
    13     4     7    1
    14    17    16    1
    15     3     2    1
    16    19    16    1
    17    16     2    1
    18    16    18    1
    19     2    20    1
    20     2    24    1
    21    23    20    1
    22    25    24    1
    23    20    21    1
    24    20    22    1
    25    24    27    1
    26    24    26    1
