@<TRIPOS>MOLECULE
5
 21 20 0 0 0
SMALL
GASTEIGER

@<TRIPOS>ATOM
      1 SI         -4.7244   -1.2039    2.1518 Si      1  UNL1        0.0000
      2 H          -3.7719   -0.6607    1.1330 H       1  UNL1        0.0000
      3 SI         -4.9639   -1.0075    5.1548 Si      1  UNL1        0.0000
      4 H          -4.0372   -1.1535    6.3214 H       1  UNL1        0.0000
      5 N          -4.0210   -1.0316    3.7138 N.3     1  UNL1        0.0000
      6 C          -5.1106   -3.0228    1.6873 C.3     1  UNL1        0.0000
      7 H          -4.2777   -3.6746    1.9299 H       1  UNL1        0.0000
      8 H          -5.3286   -3.1310    0.6286 H       1  UNL1        0.0000
      9 H          -5.9748   -3.3847    2.2352 H       1  UNL1        0.0000
     10 C          -6.3548   -0.2498    1.8932 C.3     1  UNL1        0.0000
     11 H          -7.1455   -0.6416    2.5232 H       1  UNL1        0.0000
     12 H          -6.6892   -0.3247    0.8635 H       1  UNL1        0.0000
     13 H          -6.2383    0.8022    2.1271 H       1  UNL1        0.0000
     14 C          -6.2889   -2.3737    5.2962 C.3     1  UNL1        0.0000
     15 H          -7.0745   -2.2334    4.5604 H       1  UNL1        0.0000
     16 H          -6.7544   -2.3659    6.2770 H       1  UNL1        0.0000
     17 H          -5.8615   -3.3571    5.1387 H       1  UNL1        0.0000
     18 C          -5.9054    0.6381    5.4241 C.3     1  UNL1        0.0000
     19 H          -5.2815    1.5074    5.2451 H       1  UNL1        0.0000
     20 H          -6.2803    0.7030    6.4410 H       1  UNL1        0.0000
     21 H          -6.7580    0.7119    4.7585 H       1  UNL1        0.0000
@<TRIPOS>BOND
     1     8     6    1
     2    12    10    1
     3     2     1    1
     4     6     7    1
     5     6     1    1
     6     6     9    1
     7    10    13    1
     8    10     1    1
     9    10    11    1
    10     1     5    1
    11     5     3    1
    12    15    14    1
    13    21    18    1
    14    17    14    1
    15     3    14    1
    16     3    18    1
    17     3     4    1
    18    19    18    1
    19    14    16    1
    20    18    20    1
