@<TRIPOS>MOLECULE
1
 19 19 0 0 0
SMALL
GASTEIGER

@<TRIPOS>ATOM
      1 N           3.6329    6.6493    0.2942 N.pl3   1  UNL1       -0.2486
      2 N           4.0717   10.8125    0.5406 N.pl3   1  UNL1       -0.3362
      3 C           3.6261    7.2941    1.4638 C.3     1  UNL1        0.0857
      4 H           3.5129    6.6869    2.3514 H       1  UNL1        0.0584
      5 C           3.7646    8.6553    1.5989 C.2     1  UNL1       -0.0389
      6 H           3.7500    9.0762    2.5896 H       1  UNL1        0.0610
      7 C           3.9318    9.4677    0.4613 C.2     1  UNL1        0.0283
      8 C           3.9300    8.7780   -0.7658 C.2     1  UNL1       -0.0256
      9 H           4.0517    9.2983   -1.7000 H       1  UNL1        0.0649
     10 C           3.7783    7.4120   -0.7925 C.2     1  UNL1        0.0139
     11 H           3.7802    6.9041   -1.7467 H       1  UNL1        0.0798
     12 C           4.1482   11.4612    1.8280 C.3     1  UNL1        0.0004
     13 H           3.2295   11.3014    2.3984 H       1  UNL1        0.0428
     14 H           4.2766   12.5312    1.6886 H       1  UNL1        0.0428
     15 H           4.9938   11.0870    2.4126 H       1  UNL1        0.0428
     16 C           4.3015   11.5912   -0.6531 C.3     1  UNL1        0.0004
     17 H           5.2323   11.2978   -1.1481 H       1  UNL1        0.0428
     18 H           4.3699   12.6440   -0.3925 H       1  UNL1        0.0428
     19 H           3.4759   11.4701   -1.3588 H       1  UNL1        0.0428
@<TRIPOS>BOND
     1    11    10    1
     2     9     8    1
     3    19    16    1
     4    17    16    1
     5    10     8    2
     6    10     1    1
     7     8     7    1
     8    16    18    1
     9    16     2    1
    10     1     3    1
    11     7     2    1
    12     7     5    2
    13     2    12    1
    14     3     5    1
    15     3     4    1
    16     5     6    1
    17    14    12    1
    18    12    13    1
    19    12    15    1
