@<TRIPOS>MOLECULE
1
 27 26 0 0 0
SMALL
GASTEIGER

@<TRIPOS>ATOM
      1 N           3.6178    8.1966    3.0712 N.3     1  UNL1        0.0000
      2 SI          4.8628    8.8681    2.0621 Si      1  UNL1        0.0000
      3 SI          3.3013    6.5121    3.2615 Si      1  UNL1        0.0000
      4 C           2.5523    5.7599    1.6655 C.3     1  UNL1        0.0000
      5 H           1.6763    6.3067    1.3268 H       1  UNL1        0.0000
      6 H           2.2569    4.7266    1.8191 H       1  UNL1        0.0000
      7 H           3.2754    5.7789    0.8567 H       1  UNL1        0.0000
      8 C           4.8440    5.5035    3.7619 C.3     1  UNL1        0.0000
      9 H           5.4895    6.0650    4.4294 H       1  UNL1        0.0000
     10 H           5.4293    5.2270    2.8931 H       1  UNL1        0.0000
     11 H           4.5587    4.5873    4.2691 H       1  UNL1        0.0000
     12 C           2.0342    6.2284    4.6713 C.3     1  UNL1        0.0000
     13 H           2.3930    6.6178    5.6195 H       1  UNL1        0.0000
     14 H           1.8835    5.1608    4.8049 H       1  UNL1        0.0000
     15 H           1.0580    6.6609    4.4709 H       1  UNL1        0.0000
     16 C           6.0542    7.6044    1.2780 C.3     1  UNL1        0.0000
     17 H           6.6773    7.1287    2.0255 H       1  UNL1        0.0000
     18 H           6.7092    8.1011    0.5709 H       1  UNL1        0.0000
     19 H           5.5201    6.8274    0.7441 H       1  UNL1        0.0000
     20 C           5.8828   10.0794    3.1399 C.3     1  UNL1        0.0000
     21 H           5.2225   10.8015    3.6140 H       1  UNL1        0.0000
     22 H           6.5984   10.6282    2.5365 H       1  UNL1        0.0000
     23 H           6.4420    9.5653    3.9163 H       1  UNL1        0.0000
     24 C           4.0163    9.8560    0.6556 C.3     1  UNL1        0.0000
     25 H           3.3263    9.2364    0.0895 H       1  UNL1        0.0000
     26 H           4.7427   10.2585   -0.0431 H       1  UNL1        0.0000
     27 H           3.4557   10.6871    1.0769 H       1  UNL1        0.0000
@<TRIPOS>BOND
     1    26    24    1
     2    25    24    1
     3    18    16    1
     4    24    27    1
     5    24     2    1
     6    19    16    1
     7     7     4    1
     8    16    17    1
     9    16     2    1
    10     5     4    1
    11     4     6    1
    12     4     3    1
    13     2     1    1
    14     2    20    1
    15    22    20    1
    16    10     8    1
    17     1     3    1
    18    20    21    1
    19    20    23    1
    20     3     8    1
    21     3    12    1
    22     8    11    1
    23     8     9    1
    24    15    12    1
    25    12    14    1
    26    12    13    1
