@<TRIPOS>MOLECULE
5
 21 20 0 0 0
SMALL
GASTEIGER

@<TRIPOS>ATOM
      1 SI         -0.5329    2.5722    7.3642 Si      1  UNL1        0.0000
      2 H           0.5517    3.2286    6.5513 H       1  UNL1        0.0000
      3 SI         -1.0828   -0.2568    8.2323 Si      1  UNL1        0.0000
      4 H          -1.1256   -1.5825    7.5341 H       1  UNL1        0.0000
      5 N          -0.3847    0.8772    7.1420 N.3     1  UNL1        0.0000
      6 C          -0.2295    3.1650    9.1489 C.3     1  UNL1        0.0000
      7 H          -1.0209    2.8299    9.8097 H       1  UNL1        0.0000
      8 H          -0.1978    4.2484    9.1982 H       1  UNL1        0.0000
      9 H           0.7082    2.7871    9.5421 H       1  UNL1        0.0000
     10 C          -2.2115    3.3003    6.8185 C.3     1  UNL1        0.0000
     11 H          -2.4958    2.9308    5.8372 H       1  UNL1        0.0000
     12 H          -2.1783    4.3845    6.7691 H       1  UNL1        0.0000
     13 H          -3.0011    3.0271    7.5117 H       1  UNL1        0.0000
     14 C          -2.8731    0.1241    8.7700 C.3     1  UNL1        0.0000
     15 H          -2.9202    1.0373    9.3547 H       1  UNL1        0.0000
     16 H          -3.2825   -0.6762    9.3783 H       1  UNL1        0.0000
     17 H          -3.5202    0.2497    7.9070 H       1  UNL1        0.0000
     18 C          -0.0503   -0.4670    9.8271 C.3     1  UNL1        0.0000
     19 H           1.0067   -0.5880    9.6123 H       1  UNL1        0.0000
     20 H          -0.3774   -1.3396   10.3828 H       1  UNL1        0.0000
     21 H          -0.1565    0.3943   10.4777 H       1  UNL1        0.0000
@<TRIPOS>BOND
     1    11    10    1
     2     2     1    1
     3    12    10    1
     4    10     1    1
     5    10    13    1
     6     5     1    1
     7     5     3    1
     8     1     6    1
     9     4     3    1
    10    17    14    1
    11     3    14    1
    12     3    18    1
    13    14    15    1
    14    14    16    1
    15     6     8    1
    16     6     9    1
    17     6     7    1
    18    19    18    1
    19    18    20    1
    20    18    21    1
