@<TRIPOS>MOLECULE
1
 11 11 0 0 0
SMALL
GASTEIGER

@<TRIPOS>ATOM
      1 N           4.9564    4.1672    1.4419 N.pl3   1  UNL1       -0.2487
      2 C           4.7250    5.3857    1.9209 C.3     1  UNL1        0.0840
      3 H           3.6978    5.6036    2.1773 H       1  UNL1        0.0584
      4 C           5.7219    6.3374    2.0691 C.2     1  UNL1       -0.0600
      5 H           5.4865    7.3135    2.4638 H       1  UNL1        0.0592
      6 C           7.0178    6.0106    1.7030 C.2     1  UNL1       -0.0626
      7 H           7.8198    6.7280    1.8043 H       1  UNL1        0.0615
      8 C           7.2605    4.7409    1.2026 C.2     1  UNL1       -0.0466
      9 H           8.2533    4.4423    0.9033 H       1  UNL1        0.0630
     10 C           6.2005    3.8561    1.0927 C.2     1  UNL1        0.0121
     11 H           6.3373    2.8605    0.6950 H       1  UNL1        0.0797
@<TRIPOS>BOND
     1    11    10    1
     2     9     8    1
     3    10     8    2
     4    10     1    1
     5     8     6    1
     6     1     2    1
     7     6     7    1
     8     6     4    2
     9     2     4    1
    10     2     3    1
    11     4     5    1
