@<TRIPOS>MOLECULE
1
 11 11 0 0 0
SMALL
GASTEIGER

@<TRIPOS>ATOM
      1 N           4.1593    4.9609   -1.4818 N.pl3   1  UNL1       -0.2487
      2 C           5.3765    4.7228   -1.9607 C.3     1  UNL1        0.0840
      3 H           5.5911    3.6933   -2.2109 H       1  UNL1        0.0584
      4 C           6.3316    5.7153   -2.1151 C.2     1  UNL1       -0.0600
      5 H           7.3064    5.4744   -2.5098 H       1  UNL1        0.0592
      6 C           6.0099    7.0144   -1.7556 C.2     1  UNL1       -0.0626
      7 H           6.7300    7.8133   -1.8621 H       1  UNL1        0.0615
      8 C           4.7418    7.2642   -1.2548 C.2     1  UNL1       -0.0466
      9 H           4.4471    8.2595   -0.9600 H       1  UNL1        0.0630
     10 C           3.8533    6.2080   -1.1385 C.2     1  UNL1        0.0121
     11 H           2.8587    6.3504   -0.7403 H       1  UNL1        0.0797
@<TRIPOS>BOND
     1     5     4    1
     2     3     2    1
     3     4     2    1
     4     4     6    2
     5     2     1    1
     6     7     6    1
     7     6     8    1
     8     1    10    1
     9     8    10    2
    10     8     9    1
    11    10    11    1
