@<TRIPOS>MOLECULE
2
 27 26 0 0 0
SMALL
GASTEIGER

@<TRIPOS>ATOM
      1 SI          5.8687    4.6866    1.2188 Si      1  UNL1        0.0000
      2 N           4.6496    4.6496   -0.0001 N.3     1  UNL1        0.0000
      3 C           5.3147    3.5721    2.6815 C.3     1  UNL1        0.0000
      4 H           5.0991    4.1607    3.5674 H       1  UNL1        0.0000
      5 H           6.0905    2.8632    2.9483 H       1  UNL1        0.0000
      6 H           4.4219    2.9968    2.4323 H       1  UNL1        0.0000
      7 C           6.2256    6.4106    1.9771 C.3     1  UNL1        0.0000
      8 H           6.7260    7.0399    1.2501 H       1  UNL1        0.0000
      9 H           6.8748    6.3328    2.8438 H       1  UNL1        0.0000
     10 H           5.3243    6.9300    2.2832 H       1  UNL1        0.0000
     11 C           7.5873    4.0929    0.6013 C.3     1  UNL1        0.0000
     12 H           7.5019    3.3568   -0.1896 H       1  UNL1        0.0000
     13 H           8.1730    3.6521    1.4016 H       1  UNL1        0.0000
     14 H           8.1542    4.9287    0.2065 H       1  UNL1        0.0000
     15 SI          4.6866    5.8688   -1.2190 Si      1  UNL1        0.0000
     16 C           3.5722    5.3149   -2.6817 C.3     1  UNL1        0.0000
     17 H           4.1608    5.0994   -3.5677 H       1  UNL1        0.0000
     18 H           2.8632    6.0908   -2.9484 H       1  UNL1        0.0000
     19 H           2.9968    4.4220   -2.4326 H       1  UNL1        0.0000
     20 C           6.4106    6.2256   -1.9772 C.3     1  UNL1        0.0000
     21 H           7.0399    6.7260   -1.2502 H       1  UNL1        0.0000
     22 H           6.3329    6.8749   -2.8438 H       1  UNL1        0.0000
     23 H           6.9301    5.3244   -2.2834 H       1  UNL1        0.0000
     24 C           4.0929    7.5874   -0.6014 C.3     1  UNL1        0.0000
     25 H           3.3568    7.5020    0.1895 H       1  UNL1        0.0000
     26 H           3.6521    8.1732   -1.4017 H       1  UNL1        0.0000
     27 H           4.9288    8.1543   -0.2065 H       1  UNL1        0.0000
@<TRIPOS>BOND
     1    17    16    1
     2    18    16    1
     3    22    20    1
     4    16    19    1
     5    16    15    1
     6    23    20    1
     7    20    21    1
     8    20    15    1
     9    26    24    1
    10    15    24    1
    11    15     2    1
    12    24    27    1
    13    24    25    1
    14    12    11    1
    15     2     1    1
    16    14    11    1
    17    11     1    1
    18    11    13    1
    19     1     7    1
    20     1     3    1
    21     8     7    1
    22     7    10    1
    23     7     9    1
    24     6     3    1
    25     3     5    1
    26     3     4    1
