@<TRIPOS>MOLECULE
1
 11 11 0 0 0
SMALL
GASTEIGER

@<TRIPOS>ATOM
      1 N          -3.7374    9.4531    5.9427 N.ar    1  UNL1       -0.2633
      2 C          -4.8725    9.1217    5.3207 C.ar    1  UNL1        0.0276
      3 H          -4.7767    8.7310    4.3169 H       1  UNL1        0.0829
      4 C          -6.1250    9.2491    5.8963 C.ar    1  UNL1       -0.0436
      5 H          -7.0040    8.9671    5.3390 H       1  UNL1        0.0633
      6 C          -6.2216    9.7395    7.1889 C.ar    1  UNL1       -0.0589
      7 H          -7.1823    9.8539    7.6676 H       1  UNL1        0.0618
      8 C          -5.0513   10.0784    7.8475 C.ar    1  UNL1       -0.0436
      9 H          -5.0677   10.4617    8.8549 H       1  UNL1        0.0633
     10 C          -3.8431    9.9208    7.1896 C.ar    1  UNL1        0.0276
     11 H          -2.9198   10.1779    7.6916 H       1  UNL1        0.0829
@<TRIPOS>BOND
     1     3     2    1
     2     2     4   ar
     3     2     1   ar
     4     5     4    1
     5     4     6   ar
     6     1    10   ar
     7     6     7    1
     8     6     8   ar
     9    10    11    1
    10    10     8   ar
    11     8     9    1
