@<TRIPOS>MOLECULE
1
 31 31 0 0 0
SMALL
GASTEIGER

@<TRIPOS>ATOM
      1 N          -0.6367    2.6271    6.0517 N.pl3   1  UNL1       -0.2660
      2 H          -0.9789    3.5861    6.1328 H       1  UNL1        0.1699
      3 C          -0.8392    2.2151    4.7678 C.ar    1  UNL1        0.0512
      4 C          -0.6494    0.8511    4.4054 C.ar    1  UNL1       -0.0222
      5 C          -0.9273    0.4316    3.1178 C.ar    1  UNL1       -0.0565
      6 H          -0.7966   -0.6097    2.8612 H       1  UNL1        0.0621
      7 C          -1.3825    1.3076    2.1503 C.ar    1  UNL1       -0.0611
      8 H          -1.6061    0.9580    1.1537 H       1  UNL1        0.0618
      9 C          -1.5458    2.6417    2.4787 C.ar    1  UNL1       -0.0565
     10 H          -1.8964    3.3224    1.7183 H       1  UNL1        0.0621
     11 C          -1.2685    3.1162    3.7459 C.ar    1  UNL1       -0.0222
     12 C          -0.1756   -0.1797    5.4100 C.3     1  UNL1       -0.0197
     13 H           0.0746    0.3381    6.3521 H       1  UNL1        0.0344
     14 C           1.0848   -0.9099    4.9370 C.3     1  UNL1       -0.0586
     15 H           1.4332   -1.5964    5.7061 H       1  UNL1        0.0235
     16 H           1.8832   -0.2004    4.7208 H       1  UNL1        0.0235
     17 H           0.8877   -1.4841    4.0352 H       1  UNL1        0.0235
     18 C          -1.2902   -1.1830    5.7225 C.3     1  UNL1       -0.0586
     19 H          -0.9682   -1.8821    6.4931 H       1  UNL1        0.0235
     20 H          -1.5555   -1.7490    4.8330 H       1  UNL1        0.0235
     21 H          -2.1798   -0.6626    6.0731 H       1  UNL1        0.0235
     22 C          -1.4453    4.5918    4.0536 C.3     1  UNL1       -0.0197
     23 H          -0.7257    4.8776    4.8332 H       1  UNL1        0.0344
     24 C          -2.8645    4.8538    4.5720 C.3     1  UNL1       -0.0586
     25 H          -2.9851    5.8982    4.8559 H       1  UNL1        0.0235
     26 H          -3.0877    4.2319    5.4369 H       1  UNL1        0.0235
     27 H          -3.5901    4.6194    3.7956 H       1  UNL1        0.0235
     28 C          -1.1539    5.5021    2.8593 C.3     1  UNL1       -0.0586
     29 H          -0.1991    5.2469    2.4045 H       1  UNL1        0.0235
     30 H          -1.1103    6.5381    3.1916 H       1  UNL1        0.0235
     31 H          -1.9323    5.4309    2.1039 H       1  UNL1        0.0235
@<TRIPOS>BOND
     1     8     7    1
     2    10     9    1
     3    31    28    1
     4     7     9   ar
     5     7     5   ar
     6    29    28    1
     7     9    11   ar
     8    28    30    1
     9    28    22    1
    10     6     5    1
    11     5     4   ar
    12    11    22    1
    13    11     3   ar
    14    27    24    1
    15    17    14    1
    16    22    24    1
    17    22    23    1
    18     4     3   ar
    19     4    12    1
    20    24    25    1
    21    24    26    1
    22    16    14    1
    23     3     1    1
    24    20    18    1
    25    14    12    1
    26    14    15    1
    27    12    18    1
    28    12    13    1
    29    18    21    1
    30    18    19    1
    31     1     2    1
