@<TRIPOS>MOLECULE
1
 31 31 0 0 0
SMALL
GASTEIGER

@<TRIPOS>ATOM
      1 N           9.8090    4.1931   14.7336 N.pl3   1  UNL1       -0.2660
      2 H           9.4840    3.6793   15.5543 H       1  UNL1        0.1699
      3 C           9.5042    5.5088   14.9106 C.ar    1  UNL1        0.0512
      4 C          10.1273    6.4926   14.0845 C.ar    1  UNL1       -0.0222
      5 C           9.7869    7.8235   14.2121 C.ar    1  UNL1       -0.0565
      6 H          10.2659    8.5597   13.5850 H       1  UNL1        0.0621
      7 C           8.8555    8.2437   15.1475 C.ar    1  UNL1       -0.0611
      8 H           8.5973    9.2889   15.2325 H       1  UNL1        0.0618
      9 C           8.2972    7.3132   16.0038 C.ar    1  UNL1       -0.0565
     10 H           7.6144    7.6559   16.7670 H       1  UNL1        0.0621
     11 C           8.5955    5.9655   15.9130 C.ar    1  UNL1       -0.0222
     12 C          11.2472    6.0692   13.1606 C.3     1  UNL1       -0.0197
     13 H          11.0123    5.0597   12.7909 H       1  UNL1        0.0344
     14 C          11.4545    6.9707   11.9441 C.3     1  UNL1       -0.0586
     15 H          12.1272    6.4800   11.2436 H       1  UNL1        0.0235
     16 H          11.9031    7.9195   12.2291 H       1  UNL1        0.0235
     17 H          10.5135    7.1698   11.4343 H       1  UNL1        0.0235
     18 C          12.5474    5.9848   13.9690 C.3     1  UNL1       -0.0586
     19 H          13.3515    5.5837   13.3556 H       1  UNL1        0.0235
     20 H          12.4096    5.3427   14.8359 H       1  UNL1        0.0235
     21 H          12.8343    6.9746   14.3197 H       1  UNL1        0.0235
     22 C           8.0020    5.0212   16.9445 C.3     1  UNL1       -0.0197
     23 H           8.0222    3.9902   16.5681 H       1  UNL1        0.0344
     24 C           8.8521    5.0695   18.2191 C.3     1  UNL1       -0.0586
     25 H           9.8887    4.8236   17.9989 H       1  UNL1        0.0235
     26 H           8.4768    4.3642   18.9588 H       1  UNL1        0.0235
     27 H           8.8272    6.0697   18.6465 H       1  UNL1        0.0235
     28 C           6.5398    5.3268   17.2834 C.3     1  UNL1       -0.0586
     29 H           5.9492    5.4717   16.3810 H       1  UNL1        0.0235
     30 H           6.4547    6.2203   17.8964 H       1  UNL1        0.0235
     31 H           6.1111    4.4979   17.8439 H       1  UNL1        0.0235
@<TRIPOS>BOND
     1    15    14    1
     2    17    14    1
     3    14    16    1
     4    14    12    1
     5    13    12    1
     6    12    18    1
     7    12     4    1
     8    19    18    1
     9     6     5    1
    10    18    21    1
    11    18    20    1
    12     4     5   ar
    13     4     3   ar
    14     5     7   ar
    15     1     3    1
    16     1     2    1
    17     3    11   ar
    18     7     8    1
    19     7     9   ar
    20    11     9   ar
    21    11    22    1
    22     9    10    1
    23    29    28    1
    24    23    22    1
    25    22    28    1
    26    22    24    1
    27    28    31    1
    28    28    30    1
    29    25    24    1
    30    24    27    1
    31    24    26    1
