@<TRIPOS>MOLECULE
3
 27 26 0 0 0
SMALL
GASTEIGER

@<TRIPOS>ATOM
      1 SI          8.0593    5.6526    2.4236 Si      1  UNL1        0.0000
      2 SI          7.1530    8.5214    1.9678 Si      1  UNL1        0.0000
      3 N           8.1175    7.3375    2.7651 N.3     1  UNL1        0.0000
      4 C           6.3384    4.9088    2.0260 C.3     1  UNL1        0.0000
      5 H           5.6337    5.1180    2.8253 H       1  UNL1        0.0000
      6 H           6.3851    3.8321    1.8950 H       1  UNL1        0.0000
      7 H           5.9374    5.3334    1.1120 H       1  UNL1        0.0000
      8 C           9.2316    5.2026    0.9716 C.3     1  UNL1        0.0000
      9 H           8.7976    5.5191    0.0305 H       1  UNL1        0.0000
     10 H           9.3984    4.1326    0.9110 H       1  UNL1        0.0000
     11 H          10.1981    5.6883    1.0611 H       1  UNL1        0.0000
     12 C           8.7038    4.7879    4.0290 C.3     1  UNL1        0.0000
     13 H           9.3444    5.4704    4.6063 H       1  UNL1        0.0000
     14 H           9.2878    3.8992    3.7987 H       1  UNL1        0.0000
     15 H           7.8667    4.4695    4.6532 H       1  UNL1        0.0000
     16 C           7.8237   10.2393    2.4973 C.3     1  UNL1        0.0000
     17 H           8.0363   10.2552    3.5686 H       1  UNL1        0.0000
     18 H           7.0996   11.0187    2.2818 H       1  UNL1        0.0000
     19 H           8.7336   10.4935    1.9622 H       1  UNL1        0.0000
     20 C           5.2803    8.4217    2.3911 C.3     1  UNL1        0.0000
     21 H           4.7501    7.8100    1.6682 H       1  UNL1        0.0000
     22 H           4.8104    9.4007    2.3926 H       1  UNL1        0.0000
     23 H           5.1215    7.9727    3.3681 H       1  UNL1        0.0000
     24 C           7.3074    8.3922    0.0631 C.3     1  UNL1        0.0000
     25 H           8.3441    8.4177   -0.2540 H       1  UNL1        0.0000
     26 H           6.7911    9.2104   -0.4265 H       1  UNL1        0.0000
     27 H           6.8768    7.4657   -0.2998 H       1  UNL1        0.0000
@<TRIPOS>BOND
     1    26    24    1
     2    27    24    1
     3    25    24    1
     4     9     8    1
     5    24     2    1
     6    10     8    1
     7     8    11    1
     8     8     1    1
     9     7     4    1
    10    21    20    1
    11     6     4    1
    12    19    16    1
    13     2    20    1
    14     2    16    1
    15     2     3    1
    16     4     1    1
    17     4     5    1
    18    18    16    1
    19    20    22    1
    20    20    23    1
    21     1     3    1
    22     1    12    1
    23    16    17    1
    24    14    12    1
    25    12    13    1
    26    12    15    1
