@<TRIPOS>MOLECULE
1
 9 8 0 0 0
SMALL
GASTEIGER

@<TRIPOS>ATOM
      1 N           5.1978    4.8087   -0.2327 N.3     1  UNL1       -0.2469
      2 C           3.8741    4.2739   -0.0106 C.3     1  UNL1        0.0021
      3 H           3.0973    5.0058   -0.2752 H       1  UNL1        0.0405
      4 H           3.7447    4.0154    1.0371 H       1  UNL1        0.0405
      5 H           3.7030    3.3748   -0.6209 H       1  UNL1        0.0405
      6 C           5.3058    5.1447   -1.6388 C.3     1  UNL1        0.0021
      7 H           5.2479    4.2408   -2.2606 H       1  UNL1        0.0405
      8 H           6.2511    5.6374   -1.8517 H       1  UNL1        0.0405
      9 H           4.4861    5.8131   -1.9420 H       1  UNL1        0.0405
@<TRIPOS>BOND
     1     7     6    1
     2     9     6    1
     3     8     6    1
     4     6     1    1
     5     5     2    1
     6     3     2    1
     7     1     2    1
     8     2     4    1
