@<TRIPOS>MOLECULE
3
 27 26 0 0 0
SMALL
GASTEIGER

@<TRIPOS>ATOM
      1 SI          6.7597    1.4920   -0.7788 Si      1  UNL1        0.0000
      2 SI          8.5653    3.4783   -2.1085 Si      1  UNL1        0.0000
      3 N           7.4837    3.0544   -0.8399 N.3     1  UNL1        0.0000
      4 C           5.8232    1.2263    0.8686 C.3     1  UNL1        0.0000
      5 H           6.4922    1.1606    1.7186 H       1  UNL1        0.0000
      6 H           5.2639    0.2961    0.8316 H       1  UNL1        0.0000
      7 H           5.1146    2.0244    1.0613 H       1  UNL1        0.0000
      8 C           8.0231    0.0598   -0.9175 C.3     1  UNL1        0.0000
      9 H           8.4923    0.0483   -1.8952 H       1  UNL1        0.0000
     10 H           7.5332   -0.8982   -0.7771 H       1  UNL1        0.0000
     11 H           8.8089    0.1376   -0.1731 H       1  UNL1        0.0000
     12 C           5.4600    1.1516   -2.1523 C.3     1  UNL1        0.0000
     13 H           4.7066    1.9315   -2.2075 H       1  UNL1        0.0000
     14 H           4.9446    0.2147   -1.9634 H       1  UNL1        0.0000
     15 H           5.9235    1.0765   -3.1292 H       1  UNL1        0.0000
     16 C          10.3098    2.6702   -2.0139 C.3     1  UNL1        0.0000
     17 H          11.0244    3.2757   -1.4643 H       1  UNL1        0.0000
     18 H          10.7076    2.5313   -3.0150 H       1  UNL1        0.0000
     19 H          10.2733    1.6947   -1.5429 H       1  UNL1        0.0000
     20 C           7.9215    3.0349   -3.8566 C.3     1  UNL1        0.0000
     21 H           7.9577    1.9626   -4.0143 H       1  UNL1        0.0000
     22 H           8.5370    3.4979   -4.6220 H       1  UNL1        0.0000
     23 H           6.8983    3.3582   -4.0161 H       1  UNL1        0.0000
     24 C           8.9024    5.3720   -2.1840 C.3     1  UNL1        0.0000
     25 H           8.2668    5.8571   -2.9191 H       1  UNL1        0.0000
     26 H           9.9293    5.5534   -2.4885 H       1  UNL1        0.0000
     27 H           8.7529    5.8728   -1.2319 H       1  UNL1        0.0000
@<TRIPOS>BOND
     1    22    20    1
     2    23    20    1
     3    21    20    1
     4    20     2    1
     5    15    12    1
     6    18    16    1
     7    25    24    1
     8    26    24    1
     9    13    12    1
    10    24     2    1
    11    24    27    1
    12    12    14    1
    13    12     1    1
    14     2    16    1
    15     2     3    1
    16    16    19    1
    17    16    17    1
    18     9     8    1
    19     8     1    1
    20     8    10    1
    21     8    11    1
    22     3     1    1
    23     1     4    1
    24     6     4    1
    25     4     7    1
    26     4     5    1
