@<TRIPOS>MOLECULE
1
 9 8 0 0 0
SMALL
GASTEIGER

@<TRIPOS>ATOM
      1 N           8.5134    3.8118    1.8050 N.3     1  UNL1       -0.2469
      2 C           9.8456    3.9551    1.2549 C.3     1  UNL1        0.0021
      3 H          10.5772    4.1773    2.0474 H       1  UNL1        0.0405
      4 H           9.8858    4.7489    0.5121 H       1  UNL1        0.0405
      5 H          10.1570    3.0211    0.7688 H       1  UNL1        0.0405
      6 C           8.5468    2.7096    2.7395 C.3     1  UNL1        0.0021
      7 H           8.8266    1.7758    2.2285 H       1  UNL1        0.0405
      8 H           7.5697    2.5765    3.1965 H       1  UNL1        0.0405
      9 H           9.2880    2.8804    3.5337 H       1  UNL1        0.0405
@<TRIPOS>BOND
     1     4     2    1
     2     5     2    1
     3     2     1    1
     4     2     3    1
     5     1     6    1
     6     7     6    1
     7     6     8    1
     8     6     9    1
