@<TRIPOS>MOLECULE
1
 9 8 0 0 0
SMALL
GASTEIGER

@<TRIPOS>ATOM
      1 N           7.4242    6.5946    0.9219 N.3     1  UNL1       -0.2469
      2 C           6.7516    7.6493    0.1901 C.3     1  UNL1        0.0021
      3 H           6.5838    8.5247    0.8319 H       1  UNL1        0.0405
      4 H           5.7885    7.2979   -0.1723 H       1  UNL1        0.0405
      5 H           7.3505    7.9871   -0.6701 H       1  UNL1        0.0405
      6 C           8.6884    7.1060    1.4138 C.3     1  UNL1        0.0021
      7 H           9.3870    7.3227    0.5893 H       1  UNL1        0.0405
      8 H           9.1477    6.3848    2.0856 H       1  UNL1        0.0405
      9 H           8.5469    8.0452    1.9635 H       1  UNL1        0.0405
@<TRIPOS>BOND
     1     5     2    1
     2     4     2    1
     3     2     3    1
     4     2     1    1
     5     7     6    1
     6     1     6    1
     7     6     9    1
     8     6     8    1
