@<TRIPOS>MOLECULE
1
 9 8 0 0 0
SMALL
GASTEIGER

@<TRIPOS>ATOM
      1 N           8.0366    9.3705    5.5938 N.3     1  UNL1       -0.2469
      2 C           6.6678    9.7792    5.8638 C.3     1  UNL1        0.0021
      3 H           6.3098    9.4131    6.8477 H       1  UNL1        0.0405
      4 H           6.0017    9.3985    5.0829 H       1  UNL1        0.0405
      5 H           6.5855   10.8798    5.8780 H       1  UNL1        0.0405
      6 C           8.9353    9.9876    6.5526 C.3     1  UNL1        0.0021
      7 H           8.9228   11.0876    6.4465 H       1  UNL1        0.0405
      8 H           9.9570    9.6313    6.3905 H       1  UNL1        0.0405
      9 H           8.6456    9.7643    7.5980 H       1  UNL1        0.0405
@<TRIPOS>BOND
     1     4     2    1
     2     1     2    1
     3     1     6    1
     4     2     5    1
     5     2     3    1
     6     8     6    1
     7     7     6    1
     8     6     9    1
