@<TRIPOS>MOLECULE
3
 27 26 0 0 0
SMALL
GASTEIGER

@<TRIPOS>ATOM
      1 SI         10.2768    6.4662    7.2257 Si      1  UNL1        0.0000
      2 SI         11.6120    7.5107    4.6325 Si      1  UNL1        0.0000
      3 N          10.2837    7.1374    5.6501 N.3     1  UNL1        0.0000
      4 C           8.4186    6.4398    7.7099 C.3     1  UNL1        0.0000
      5 H           7.9256    7.3739    7.4146 H       1  UNL1        0.0000
      6 H           8.2908    6.3282    8.7837 H       1  UNL1        0.0000
      7 H           7.8921    5.6056    7.2412 H       1  UNL1        0.0000
      8 C          11.2254    7.4667    8.5566 C.3     1  UNL1        0.0000
      9 H          12.2883    7.4754    8.3446 H       1  UNL1        0.0000
     10 H          11.0929    7.0282    9.5405 H       1  UNL1        0.0000
     11 H          10.8925    8.4983    8.6073 H       1  UNL1        0.0000
     12 C          10.9581    4.6734    7.2976 C.3     1  UNL1        0.0000
     13 H          10.4444    4.0112    6.6068 H       1  UNL1        0.0000
     14 H          10.8579    4.2527    8.2926 H       1  UNL1        0.0000
     15 H          12.0127    4.6594    7.0426 H       1  UNL1        0.0000
     16 C          10.8630    8.7600    3.3889 C.3     1  UNL1        0.0000
     17 H          10.1244    8.2609    2.7555 H       1  UNL1        0.0000
     18 H          11.6165    9.1966    2.7393 H       1  UNL1        0.0000
     19 H          10.3696    9.5771    3.9190 H       1  UNL1        0.0000
     20 C          12.2728    5.9883    3.6686 C.3     1  UNL1        0.0000
     21 H          12.6416    5.2276    4.3497 H       1  UNL1        0.0000
     22 H          13.0934    6.2621    3.0133 H       1  UNL1        0.0000
     23 H          11.4978    5.5353    3.0571 H       1  UNL1        0.0000
     24 C          13.1085    8.3095    5.5171 C.3     1  UNL1        0.0000
     25 H          12.8113    9.1468    6.1393 H       1  UNL1        0.0000
     26 H          13.8391    8.6713    4.8017 H       1  UNL1        0.0000
     27 H          13.6059    7.5869    6.1545 H       1  UNL1        0.0000
@<TRIPOS>BOND
     1    18    16    1
     2    17    16    1
     3    22    20    1
     4    23    20    1
     5    16    19    1
     6    16     2    1
     7    20    21    1
     8    20     2    1
     9     2    24    1
    10     2     3    1
    11    26    24    1
    12    24    25    1
    13    24    27    1
    14     3     1    1
    15    13    12    1
    16    15    12    1
    17     1    12    1
    18     1     4    1
    19     1     8    1
    20     7     4    1
    21    12    14    1
    22     5     4    1
    23     4     6    1
    24     9     8    1
    25     8    11    1
    26     8    10    1
