@<TRIPOS>MOLECULE
1
 10 9 0 0 0
SMALL
GASTEIGER

@<TRIPOS>ATOM
      1 N          15.4138    6.0653    7.0549 N.3     1  UNL1       -0.3220
      2 H          15.8612    6.8747    7.4968 H       1  UNL1        0.1213
      3 C          14.0729    6.4937    6.6408 C.3     1  UNL1       -0.0161
      4 H          13.5665    5.6539    6.1625 H       1  UNL1        0.0388
      5 H          14.1548    7.3099    5.9220 H       1  UNL1        0.0388
      6 H          13.4728    6.8279    7.4986 H       1  UNL1        0.0388
      7 C          15.3137    5.0199    8.0795 C.3     1  UNL1       -0.0161
      8 H          14.7061    5.3488    8.9341 H       1  UNL1        0.0388
      9 H          16.3113    4.7550    8.4327 H       1  UNL1        0.0388
     10 H          14.8507    4.1362    7.6370 H       1  UNL1        0.0388
@<TRIPOS>BOND
     1     5     3    1
     2     4     3    1
     3     3     1    1
     4     3     6    1
     5     1     2    1
     6     1     7    1
     7    10     7    1
     8     7     9    1
     9     7     8    1
