@<TRIPOS>MOLECULE
1
 42 41 0 0 0
SMALL
GASTEIGER

@<TRIPOS>ATOM
      1 N          -0.6872    8.4203   14.8005 N.3     1  UNL1        0.0000
      2 SI         -1.9385    8.7130   13.6799 Si      1  UNL1        0.0000
      3 C          -1.8941   10.6175   13.1703 C.3     1  UNL1        0.0000
      4 C          -2.4663   11.4822   14.2973 C.3     1  UNL1        0.0000
      5 C          -0.4450   11.0793   12.9854 C.3     1  UNL1        0.0000
      6 C          -2.6564   10.9438   11.8858 C.3     1  UNL1        0.0000
      7 C          -1.4421    7.5227   12.2090 C.3     1  UNL1        0.0000
      8 C          -2.4768    7.4525   11.0852 C.3     1  UNL1        0.0000
      9 C          -0.1158    7.9987   11.6155 C.3     1  UNL1        0.0000
     10 C          -1.2172    6.0955   12.7228 C.3     1  UNL1        0.0000
     11 C          -3.6858    8.2443   14.4687 C.3     1  UNL1        0.0000
     12 C          -4.8934    8.8628   13.7623 C.3     1  UNL1        0.0000
     13 C          -3.6822    8.6896   15.9351 C.3     1  UNL1        0.0000
     14 C          -3.9098    6.7303   14.4857 C.3     1  UNL1        0.0000
     15 H          -0.7638    8.9893   15.6441 H       1  UNL1        0.0000
     16 H          -2.3350   12.5394   14.0619 H       1  UNL1        0.0000
     17 H          -3.5280   11.3108   14.4395 H       1  UNL1        0.0000
     18 H          -1.9523   11.2846   15.2344 H       1  UNL1        0.0000
     19 H          -0.4102   12.1634   12.8716 H       1  UNL1        0.0000
     20 H           0.1506   10.8052   13.8492 H       1  UNL1        0.0000
     21 H           0.0124   10.6415   12.1060 H       1  UNL1        0.0000
     22 H          -2.6684   12.0223   11.7216 H       1  UNL1        0.0000
     23 H          -2.1760   10.4870   11.0248 H       1  UNL1        0.0000
     24 H          -3.6846   10.5993   11.9301 H       1  UNL1        0.0000
     25 H          -2.1406    6.7701   10.3030 H       1  UNL1        0.0000
     26 H          -3.4334    7.0919   11.4532 H       1  UNL1        0.0000
     27 H          -2.6373    8.4257   10.6328 H       1  UNL1        0.0000
     28 H           0.2804    7.2587   10.9174 H       1  UNL1        0.0000
     29 H          -0.2533    8.9216   11.0603 H       1  UNL1        0.0000
     30 H           0.6162    8.1642   12.4109 H       1  UNL1        0.0000
     31 H          -0.6674    5.5132   11.9786 H       1  UNL1        0.0000
     32 H          -0.6468    6.1003   13.6700 H       1  UNL1        0.0000
     33 H          -2.1657    5.5924   12.8789 H       1  UNL1        0.0000
     34 H          -5.8175    8.5135   14.2255 H       1  UNL1        0.0000
     35 H          -4.8857    9.9461   13.8233 H       1  UNL1        0.0000
     36 H          -4.9159    8.5783   12.7133 H       1  UNL1        0.0000
     37 H          -4.6222    8.4176   16.4170 H       1  UNL1        0.0000
     38 H          -2.8713    8.2012   16.4763 H       1  UNL1        0.0000
     39 H          -3.5568    9.7623   16.0314 H       1  UNL1        0.0000
     40 H          -4.7940    6.4909   15.0791 H       1  UNL1        0.0000
     41 H          -4.0784    6.3442   13.4846 H       1  UNL1        0.0000
     42 H          -3.0573    6.2200   14.9270 H       1  UNL1        0.0000
@<TRIPOS>BOND
     1    25     8    1
     2    27     8    1
     3    28     9    1
     4    23     6    1
     5    29     9    1
     6     8    26    1
     7     8     7    1
     8     9     7    1
     9     9    30    1
    10    22     6    1
    11     6    24    1
    12     6     3    1
    13    31    10    1
    14    21     5    1
    15     7    10    1
    16     7     2    1
    17    36    12    1
    18    10    33    1
    19    10    32    1
    20    19     5    1
    21     5     3    1
    22     5    20    1
    23     3     2    1
    24     3     4    1
    25    41    14    1
    26     2    11    1
    27     2     1    1
    28    12    35    1
    29    12    34    1
    30    12    11    1
    31    16     4    1
    32     4    17    1
    33     4    18    1
    34    11    14    1
    35    11    13    1
    36    14    42    1
    37    14    40    1
    38     1    15    1
    39    13    39    1
    40    13    37    1
    41    13    38    1
