@<TRIPOS>MOLECULE
6
 42 41 0 0 0
SMALL
GASTEIGER

@<TRIPOS>ATOM
      1 SI         -0.5299    4.0942   16.9983 Si      1  UNL1        0.0000
      2 C          -0.6541    4.4235   18.9403 C.3     1  UNL1        0.0000
      3 C          -1.0793    3.2103   19.7693 C.3     1  UNL1        0.0000
      4 C          -1.6563    5.5604   19.1679 C.3     1  UNL1        0.0000
      5 C           0.6776    4.9098   19.5172 C.3     1  UNL1        0.0000
      6 N          -0.5719    5.5706   16.1463 N.3     1  UNL1        0.0000
      7 C          -2.0323    2.9748   16.3837 C.3     1  UNL1        0.0000
      8 C          -2.1840    3.0869   14.8630 C.3     1  UNL1        0.0000
      9 C          -1.8984    1.4924   16.7327 C.3     1  UNL1        0.0000
     10 C          -3.3495    3.4869   16.9736 C.3     1  UNL1        0.0000
     11 C           1.2137    3.3801   16.4727 C.3     1  UNL1        0.0000
     12 C           2.3171    4.4160   16.7189 C.3     1  UNL1        0.0000
     13 C           1.6103    2.0976   17.2052 C.3     1  UNL1        0.0000
     14 C           1.1968    3.0932   14.9710 C.3     1  UNL1        0.0000
     15 H          -1.0731    3.4617   20.8310 H       1  UNL1        0.0000
     16 H          -2.0817    2.8803   19.5170 H       1  UNL1        0.0000
     17 H          -0.3958    2.3787   19.6176 H       1  UNL1        0.0000
     18 H          -1.7281    5.7964   20.2304 H       1  UNL1        0.0000
     19 H          -1.3331    6.4599   18.6429 H       1  UNL1        0.0000
     20 H          -2.6486    5.3004   18.8165 H       1  UNL1        0.0000
     21 H           0.5374    5.2475   20.5455 H       1  UNL1        0.0000
     22 H           1.4147    4.1123   19.5367 H       1  UNL1        0.0000
     23 H           1.0669    5.7427   18.9371 H       1  UNL1        0.0000
     24 H          -1.4440    6.0839   16.2770 H       1  UNL1        0.0000
     25 H          -3.1187    2.6232   14.5455 H       1  UNL1        0.0000
     26 H          -2.1967    4.1286   14.5612 H       1  UNL1        0.0000
     27 H          -1.3763    2.5917   14.3368 H       1  UNL1        0.0000
     28 H          -2.8041    0.9569   16.4447 H       1  UNL1        0.0000
     29 H          -1.0674    1.0425   16.1960 H       1  UNL1        0.0000
     30 H          -1.7432    1.3423   17.7964 H       1  UNL1        0.0000
     31 H          -4.1900    2.9389   16.5452 H       1  UNL1        0.0000
     32 H          -3.3897    3.3537   18.0495 H       1  UNL1        0.0000
     33 H          -3.4901    4.5405   16.7470 H       1  UNL1        0.0000
     34 H           3.2188    4.1396   16.1661 H       1  UNL1        0.0000
     35 H           1.9931    5.4238   16.3996 H       1  UNL1        0.0000
     36 H           2.5872    4.4432   17.7694 H       1  UNL1        0.0000
     37 H           2.5923    1.7591   16.8711 H       1  UNL1        0.0000
     38 H           1.6604    2.2569   18.2787 H       1  UNL1        0.0000
     39 H           0.9004    1.2986   17.0179 H       1  UNL1        0.0000
     40 H           2.2024    2.8656   14.6120 H       1  UNL1        0.0000
     41 H           0.5757    2.2300   14.7524 H       1  UNL1        0.0000
     42 H           0.8122    3.9592   14.4252 H       1  UNL1        0.0000
@<TRIPOS>BOND
     1    27     8    1
     2    42    14    1
     3    25     8    1
     4    26     8    1
     5    40    14    1
     6    41    14    1
     7     8     7    1
     8    14    11    1
     9     6    24    1
    10     6     1    1
    11    34    12    1
    12    29     9    1
    13     7     9    1
    14     7    10    1
    15     7     1    1
    16    35    12    1
    17    28     9    1
    18    11    12    1
    19    11     1    1
    20    11    13    1
    21    31    10    1
    22    12    36    1
    23     9    30    1
    24    33    10    1
    25    37    13    1
    26    10    32    1
    27     1     2    1
    28    39    13    1
    29    13    38    1
    30    19     4    1
    31    20     4    1
    32    23     5    1
    33     2     4    1
    34     2     5    1
    35     2     3    1
    36     4    18    1
    37    16     3    1
    38     5    22    1
    39     5    21    1
    40    17     3    1
    41     3    15    1
