@<TRIPOS>MOLECULE
1
 42 41 0 0 0
SMALL
GASTEIGER

@<TRIPOS>ATOM
      1 N           1.4565    7.8164   17.0372 N.3     1  UNL1        0.0000
      2 SI          2.4447    9.1088   17.5471 Si      1  UNL1        0.0000
      3 C           1.3335   10.6625   18.0430 C.3     1  UNL1        0.0000
      4 C           0.8187   11.4043   16.8072 C.3     1  UNL1        0.0000
      5 C           2.0366   11.6989   18.9212 C.3     1  UNL1        0.0000
      6 C           0.0908   10.1465   18.7767 C.3     1  UNL1        0.0000
      7 C           3.5241    8.5069   19.0837 C.3     1  UNL1        0.0000
      8 C           4.7360    9.3882   19.3871 C.3     1  UNL1        0.0000
      9 C           4.0296    7.0802   18.8457 C.3     1  UNL1        0.0000
     10 C           2.6573    8.4375   20.3443 C.3     1  UNL1        0.0000
     11 C           3.5210    9.4409   15.9478 C.3     1  UNL1        0.0000
     12 C           4.4273   10.6685   16.0487 C.3     1  UNL1        0.0000
     13 C           2.6213    9.6273   14.7201 C.3     1  UNL1        0.0000
     14 C           4.3953    8.2155   15.6794 C.3     1  UNL1        0.0000
     15 H           0.8279    7.4797   17.7670 H       1  UNL1        0.0000
     16 H           0.0737   12.1460   17.1005 H       1  UNL1        0.0000
     17 H           1.6208   11.9343   16.3018 H       1  UNL1        0.0000
     18 H           0.3522   10.7126   16.1104 H       1  UNL1        0.0000
     19 H           1.3735   12.5458   19.1043 H       1  UNL1        0.0000
     20 H           2.3165   11.2878   19.8855 H       1  UNL1        0.0000
     21 H           2.9333   12.0744   18.4347 H       1  UNL1        0.0000
     22 H          -0.5678   10.9758   19.0378 H       1  UNL1        0.0000
     23 H          -0.4670    9.4601   18.1388 H       1  UNL1        0.0000
     24 H           0.3492    9.6254   19.6917 H       1  UNL1        0.0000
     25 H           5.2255    9.0492   20.3011 H       1  UNL1        0.0000
     26 H           5.4661    9.3311   18.5842 H       1  UNL1        0.0000
     27 H           4.4535   10.4273   19.5227 H       1  UNL1        0.0000
     28 H           4.4658    6.6805   19.7620 H       1  UNL1        0.0000
     29 H           3.2109    6.4355   18.5447 H       1  UNL1        0.0000
     30 H           4.7913    7.0422   18.0757 H       1  UNL1        0.0000
     31 H           3.2248    7.9976   21.1656 H       1  UNL1        0.0000
     32 H           2.3311    9.4210   20.6652 H       1  UNL1        0.0000
     33 H           1.7811    7.8167   20.1763 H       1  UNL1        0.0000
     34 H           4.9921   10.7992   15.1244 H       1  UNL1        0.0000
     35 H           3.8482   11.5725   16.2158 H       1  UNL1        0.0000
     36 H           5.1378   10.5706   16.8630 H       1  UNL1        0.0000
     37 H           3.2100    9.5160   13.8057 H       1  UNL1        0.0000
     38 H           1.8008    8.8861   14.7130 H       1  UNL1        0.0000
     39 H           2.2001   10.6271   14.7040 H       1  UNL1        0.0000
     40 H           4.8736    8.2915   14.7010 H       1  UNL1        0.0000
     41 H           5.1872    8.1404   16.4182 H       1  UNL1        0.0000
     42 H           3.7897    7.3055   15.7092 H       1  UNL1        0.0000
@<TRIPOS>BOND
     1    37    13    1
     2    40    14    1
     3    39    13    1
     4    38    13    1
     5    13    11    1
     6    34    12    1
     7    14    42    1
     8    14    11    1
     9    14    41    1
    10    11    12    1
    11    11     2    1
    12    12    35    1
    13    12    36    1
    14    18     4    1
    15    17     4    1
    16     4    16    1
    17     4     3    1
    18     1     2    1
    19     1    15    1
    20     2     3    1
    21     2     7    1
    22     3     6    1
    23     3     5    1
    24    30     9    1
    25    23     6    1
    26    21     5    1
    27    29     9    1
    28    26     8    1
    29     6    22    1
    30     6    24    1
    31     9     7    1
    32     9    28    1
    33     5    19    1
    34     5    20    1
    35     7     8    1
    36     7    10    1
    37     8    27    1
    38     8    25    1
    39    33    10    1
    40    10    32    1
    41    10    31    1
