@<TRIPOS>MOLECULE
1
 29 30 0 0 0
SMALL
GASTEIGER

@<TRIPOS>ATOM
      1 N          13.5488    2.7862    3.5306 N.3     1  UNL1       -0.2253
      2 P          13.1467    5.1386    2.1983 P.3     1  UNL1       -0.0224
      3 C          13.5568    3.4819    2.3785 C.3     1  UNL1        0.0751
      4 H          13.7769    2.8887    1.4908 H       1  UNL1        0.0552
      5 C          13.1258    3.5588    4.6825 C.3     1  UNL1        0.0398
      6 H          12.8004    2.8685    5.4719 H       1  UNL1        0.0490
      7 H          12.2638    4.1914    4.3974 H       1  UNL1        0.0490
      8 C          13.2724    5.2534    0.3804 C.ar    1  UNL1       -0.0172
      9 C          14.3242    4.7028   -0.3501 C.ar    1  UNL1       -0.0538
     10 H          15.1143    4.1720    0.1621 H       1  UNL1        0.0624
     11 C          14.3707    4.8396   -1.7244 C.ar    1  UNL1       -0.0612
     12 H          15.1897    4.4021   -2.2788 H       1  UNL1        0.0618
     13 C          13.3815    5.5420   -2.3931 C.ar    1  UNL1       -0.0617
     14 H          13.4215    5.6471   -3.4678 H       1  UNL1        0.0618
     15 C          12.3479    6.1196   -1.6742 C.ar    1  UNL1       -0.0612
     16 H          11.5782    6.6782   -2.1883 H       1  UNL1        0.0618
     17 C          12.2983    5.9814   -0.3006 C.ar    1  UNL1       -0.0538
     18 H          11.4926    6.4317    0.2630 H       1  UNL1        0.0624
     19 C          14.2161    4.4595    5.2163 C.ar    1  UNL1       -0.0320
     20 C          15.5497    4.0923    5.0813 C.ar    1  UNL1       -0.0573
     21 H          15.7937    3.1613    4.5766 H       1  UNL1        0.0621
     22 C          16.5524    4.9090    5.5736 C.ar    1  UNL1       -0.0615
     23 H          17.5871    4.6210    5.4546 H       1  UNL1        0.0618
     24 C          16.2342    6.0941    6.2152 C.ar    1  UNL1       -0.0617
     25 H          17.0178    6.7305    6.5999 H       1  UNL1        0.0618
     26 C          14.9071    6.4624    6.3573 C.ar    1  UNL1       -0.0615
     27 H          14.6534    7.3874    6.8546 H       1  UNL1        0.0618
     28 C          13.9044    5.6514    5.8571 C.ar    1  UNL1       -0.0573
     29 H          12.8700    5.9469    5.9584 H       1  UNL1        0.0621
@<TRIPOS>BOND
     1    14    13    1
     2    13    11   ar
     3    13    15   ar
     4    12    11    1
     5    16    15    1
     6    11     9   ar
     7    15    17   ar
     8     9    10    1
     9     9     8   ar
    10    17    18    1
    11    17     8   ar
    12     8     2    1
    13     4     3    1
    14     2     3    1
    15     3     1    1
    16     1     5    1
    17     7     5    1
    18    21    20    1
    19     5    19    1
    20     5     6    1
    21    20    19   ar
    22    20    22   ar
    23    19    28   ar
    24    23    22    1
    25    22    24   ar
    26    28    29    1
    27    28    26   ar
    28    24    26   ar
    29    24    25    1
    30    26    27    1
