@<TRIPOS>MOLECULE
5
 21 20 0 0 0
SMALL
GASTEIGER

@<TRIPOS>ATOM
      1 SI          6.8860    4.5705   13.9453 Si      1  UNL1        0.0000
      2 H           5.5532    4.9561   13.3921 H       1  UNL1        0.0000
      3 SI          8.6216    2.1470   13.9352 Si      1  UNL1        0.0000
      4 H           9.4626    2.7069   15.0267 H       1  UNL1        0.0000
      5 N           7.0599    2.8607   13.8223 N.3     1  UNL1        0.0000
      6 C           7.0257    5.2210   15.7340 C.3     1  UNL1        0.0000
      7 H           6.2732    4.7827   16.3820 H       1  UNL1        0.0000
      8 H           6.9092    6.2996   15.7746 H       1  UNL1        0.0000
      9 H           7.9982    4.9780   16.1522 H       1  UNL1        0.0000
     10 C           8.1584    5.5507   12.9244 C.3     1  UNL1        0.0000
     11 H           9.1546    5.4214   13.3315 H       1  UNL1        0.0000
     12 H           7.9312    6.6113   12.9383 H       1  UNL1        0.0000
     13 H           8.1796    5.2299   11.8889 H       1  UNL1        0.0000
     14 C           8.4438    0.2811   14.3230 C.3     1  UNL1        0.0000
     15 H           8.6587    0.0828   15.3687 H       1  UNL1        0.0000
     16 H           9.1311   -0.3137   13.7302 H       1  UNL1        0.0000
     17 H           7.4357   -0.0830   14.1176 H       1  UNL1        0.0000
     18 C           9.6368    2.3142   12.3265 C.3     1  UNL1        0.0000
     19 H           9.0711    2.0094   11.4518 H       1  UNL1        0.0000
     20 H          10.5335    1.7048   12.3725 H       1  UNL1        0.0000
     21 H           9.9463    3.3411   12.1738 H       1  UNL1        0.0000
@<TRIPOS>BOND
     1    19    18    1
     2    13    10    1
     3    21    18    1
     4    18    20    1
     5    18     3    1
     6    10    12    1
     7    10    11    1
     8    10     1    1
     9     2     1    1
    10    16    14    1
    11     5     3    1
    12     5     1    1
    13     3    14    1
    14     3     4    1
    15     1     6    1
    16    17    14    1
    17    14    15    1
    18     6     8    1
    19     6     9    1
    20     6     7    1
