@<TRIPOS>MOLECULE
3
 27 26 0 0 0
SMALL
GASTEIGER

@<TRIPOS>ATOM
      1 SI          9.8564   -0.2557   12.0259 Si      1  UNL1        0.0000
      2 SI         10.6714    2.5607   11.4479 Si      1  UNL1        0.0000
      3 N          10.7523    1.1583   12.4207 N.3     1  UNL1        0.0000
      4 C           9.0580    3.5960   11.5123 C.3     1  UNL1        0.0000
      5 H           8.2584    3.0902   10.9828 H       1  UNL1        0.0000
      6 H           9.1881    4.5721   11.0531 H       1  UNL1        0.0000
      7 H           8.7232    3.7517   12.5323 H       1  UNL1        0.0000
      8 C          12.0802    3.6837   12.1221 C.3     1  UNL1        0.0000
      9 H          12.6262    3.1258   12.8856 H       1  UNL1        0.0000
     10 H          11.6860    4.5896   12.5703 H       1  UNL1        0.0000
     11 H          12.7802    3.9808   11.3476 H       1  UNL1        0.0000
     12 C          11.0252    2.2966    9.5832 C.3     1  UNL1        0.0000
     13 H          11.9380    1.7354    9.4108 H       1  UNL1        0.0000
     14 H          11.1156    3.2435    9.0599 H       1  UNL1        0.0000
     15 H          10.2117    1.7473    9.1231 H       1  UNL1        0.0000
     16 C           9.8067   -1.4533   13.5131 C.3     1  UNL1        0.0000
     17 H          10.3418   -2.3759   13.3138 H       1  UNL1        0.0000
     18 H           8.7844   -1.7255   13.7507 H       1  UNL1        0.0000
     19 H          10.2400   -0.9847   14.3900 H       1  UNL1        0.0000
     20 C          10.6025   -1.2269   10.5346 C.3     1  UNL1        0.0000
     21 H          10.5736   -0.6271    9.6318 H       1  UNL1        0.0000
     22 H          10.0277   -2.1280   10.3431 H       1  UNL1        0.0000
     23 H          11.6346   -1.5295   10.6864 H       1  UNL1        0.0000
     24 C           8.0588    0.1066   11.4716 C.3     1  UNL1        0.0000
     25 H           7.5418    0.7511   12.1744 H       1  UNL1        0.0000
     26 H           7.4823   -0.8084   11.3757 H       1  UNL1        0.0000
     27 H           8.0481    0.6023   10.5063 H       1  UNL1        0.0000
@<TRIPOS>BOND
     1    14    12    1
     2    15    12    1
     3    13    12    1
     4    12     2    1
     5    21    20    1
     6    22    20    1
     7    27    24    1
     8    20    23    1
     9    20     1    1
    10     5     4    1
    11     6     4    1
    12    11     8    1
    13    26    24    1
    14     2     4    1
    15     2     8    1
    16     2     3    1
    17    24     1    1
    18    24    25    1
    19     4     7    1
    20     1     3    1
    21     1    16    1
    22     8    10    1
    23     8     9    1
    24    17    16    1
    25    16    18    1
    26    16    19    1
