@<TRIPOS>MOLECULE
3
 27 26 0 0 0
SMALL
GASTEIGER

@<TRIPOS>ATOM
      1 SI         11.4058   -0.7297   17.1624 Si      1  UNL1        0.0000
      2 SI          9.7222    1.4930   16.2477 Si      1  UNL1        0.0000
      3 N          11.1467    0.5387   16.0215 N.3     1  UNL1        0.0000
      4 C          12.7032   -2.0911   16.7599 C.3     1  UNL1        0.0000
      5 H          12.3794   -2.7555   15.9670 H       1  UNL1        0.0000
      6 H          12.8201   -2.7007   17.6511 H       1  UNL1        0.0000
      7 H          13.6903   -1.7157   16.5107 H       1  UNL1        0.0000
      8 C          12.0461   -0.0840   18.8648 C.3     1  UNL1        0.0000
      9 H          11.7094    0.9241   19.0714 H       1  UNL1        0.0000
     10 H          13.1310   -0.0867   18.9264 H       1  UNL1        0.0000
     11 H          11.6825   -0.7179   19.6677 H       1  UNL1        0.0000
     12 C           9.8292   -1.7464   17.5353 C.3     1  UNL1        0.0000
     13 H           9.0657   -1.1295   17.9961 H       1  UNL1        0.0000
     14 H          10.0395   -2.5703   18.2109 H       1  UNL1        0.0000
     15 H           9.4085   -2.1658   16.6278 H       1  UNL1        0.0000
     16 C           9.3507    2.0501   18.0474 C.3     1  UNL1        0.0000
     17 H           9.1874    1.1949   18.6916 H       1  UNL1        0.0000
     18 H           8.4561    2.6637   18.0835 H       1  UNL1        0.0000
     19 H          10.1601    2.6324   18.4761 H       1  UNL1        0.0000
     20 C           8.0812    0.7795   15.5710 C.3     1  UNL1        0.0000
     21 H           8.1378    0.6756   14.4937 H       1  UNL1        0.0000
     22 H           7.2443    1.4319   15.8035 H       1  UNL1        0.0000
     23 H           7.8609   -0.1961   15.9872 H       1  UNL1        0.0000
     24 C          10.0251    3.1002   15.2611 C.3     1  UNL1        0.0000
     25 H          10.5900    3.8449   15.8132 H       1  UNL1        0.0000
     26 H           9.0804    3.5559   14.9864 H       1  UNL1        0.0000
     27 H          10.5457    2.8548   14.3285 H       1  UNL1        0.0000
@<TRIPOS>BOND
     1    27    24    1
     2    21    20    1
     3    26    24    1
     4    24    25    1
     5    24     2    1
     6    20    22    1
     7    20    23    1
     8    20     2    1
     9     5     4    1
    10     3     2    1
    11     3     1    1
    12     2    16    1
    13     7     4    1
    14    15    12    1
    15     4     1    1
    16     4     6    1
    17     1    12    1
    18     1     8    1
    19    12    13    1
    20    12    14    1
    21    16    18    1
    22    16    19    1
    23    16    17    1
    24     8    10    1
    25     8     9    1
    26     8    11    1
