@<TRIPOS>MOLECULE
3
 27 26 0 0 0
SMALL
GASTEIGER

@<TRIPOS>ATOM
      1 SI         -1.3913   -0.8957    4.0894 Si      1  UNL1        0.0000
      2 SI          0.8500    0.3046    5.7222 Si      1  UNL1        0.0000
      3 N          -0.4020    0.4462    4.5422 N.3     1  UNL1        0.0000
      4 C          -2.9903   -0.1915    3.2773 C.3     1  UNL1        0.0000
      5 H          -3.1379    0.8609    3.5217 H       1  UNL1        0.0000
      6 H          -3.8625   -0.7290    3.6345 H       1  UNL1        0.0000
      7 H          -2.9741   -0.2976    2.1954 H       1  UNL1        0.0000
      8 C          -0.5338   -2.0334    2.8093 C.3     1  UNL1        0.0000
      9 H           0.0368   -1.4475    2.0933 H       1  UNL1        0.0000
     10 H          -1.2473   -2.6366    2.2566 H       1  UNL1        0.0000
     11 H           0.1601   -2.7096    3.2968 H       1  UNL1        0.0000
     12 C          -1.9372   -1.9600    5.5764 C.3     1  UNL1        0.0000
     13 H          -1.0811   -2.3889    6.0845 H       1  UNL1        0.0000
     14 H          -2.5752   -2.7769    5.2560 H       1  UNL1        0.0000
     15 H          -2.4899   -1.3718    6.3010 H       1  UNL1        0.0000
     16 C           1.9508   -1.2524    5.5936 C.3     1  UNL1        0.0000
     17 H           1.3866   -2.1457    5.8375 H       1  UNL1        0.0000
     18 H           2.7978   -1.2029    6.2705 H       1  UNL1        0.0000
     19 H           2.3354   -1.3721    4.5855 H       1  UNL1        0.0000
     20 C           0.2084    0.4682    7.5186 C.3     1  UNL1        0.0000
     21 H          -0.3671    1.3786    7.6548 H       1  UNL1        0.0000
     22 H           1.0276    0.4812    8.2300 H       1  UNL1        0.0000
     23 H          -0.4339   -0.3668    7.7730 H       1  UNL1        0.0000
     24 C           1.9708    1.8396    5.3554 C.3     1  UNL1        0.0000
     25 H           2.5771    1.6643    4.4608 H       1  UNL1        0.0000
     26 H           2.6614    2.0364    6.1701 H       1  UNL1        0.0000
     27 H           1.3600    2.7497    5.2160 H       1  UNL1        0.0000
@<TRIPOS>BOND
     1     9     8    1
     2     7     4    1
     3    10     8    1
     4     8    11    1
     5     8     1    1
     6     4     5    1
     7     4     6    1
     8     4     1    1
     9     1     3    1
    10     1    12    1
    11    25    24    1
    12     3     2    1
    13    19    16    1
    14    27    24    1
    15    14    12    1
    16    24     2    1
    17    24    26    1
    18    12    13    1
    19    12    15    1
    20    16     2    1
    21    16    17    1
    22    16    18    1
    23     2    20    1
    24    20    21    1
    25    20    23    1
    26    20    22    1
