@<TRIPOS>MOLECULE
3
 27 26 0 0 0
SMALL
GASTEIGER

@<TRIPOS>ATOM
      1 SI         -1.4516    4.5499    5.0010 Si      1  UNL1        0.0000
      2 SI          0.4730    5.0504    2.6746 Si      1  UNL1        0.0000
      3 N          -0.5024    4.0195    3.6644 N.3     1  UNL1        0.0000
      4 C          -2.4868    3.0329    5.5495 C.3     1  UNL1        0.0000
      5 H          -3.4257    2.9606    5.0074 H       1  UNL1        0.0000
      6 H          -2.7353    3.0960    6.6035 H       1  UNL1        0.0000
      7 H          -1.9282    2.1048    5.3959 H       1  UNL1        0.0000
      8 C          -0.3995    5.1204    6.4962 C.3     1  UNL1        0.0000
      9 H           0.1428    4.2924    6.9442 H       1  UNL1        0.0000
     10 H          -1.0210    5.5626    7.2684 H       1  UNL1        0.0000
     11 H           0.3294    5.8660    6.1948 H       1  UNL1        0.0000
     12 C          -2.6814    5.9542    4.5766 C.3     1  UNL1        0.0000
     13 H          -3.0516    5.8799    3.5587 H       1  UNL1        0.0000
     14 H          -2.2086    6.9237    4.6786 H       1  UNL1        0.0000
     15 H          -3.5379    5.9369    5.2431 H       1  UNL1        0.0000
     16 C           2.3262    4.6362    2.9742 C.3     1  UNL1        0.0000
     17 H           2.6235    4.8291    4.0017 H       1  UNL1        0.0000
     18 H           2.9689    5.2306    2.3327 H       1  UNL1        0.0000
     19 H           2.5322    3.5871    2.7516 H       1  UNL1        0.0000
     20 C           0.2455    6.9220    2.9333 C.3     1  UNL1        0.0000
     21 H          -0.7419    7.2442    2.6259 H       1  UNL1        0.0000
     22 H           0.9717    7.4844    2.3566 H       1  UNL1        0.0000
     23 H           0.3706    7.1891    3.9758 H       1  UNL1        0.0000
     24 C           0.0989    4.6601    0.8304 C.3     1  UNL1        0.0000
     25 H           0.3523    3.6281    0.5873 H       1  UNL1        0.0000
     26 H           0.6911    5.2947    0.1793 H       1  UNL1        0.0000
     27 H          -0.9461    4.8232    0.5796 H       1  UNL1        0.0000
@<TRIPOS>BOND
     1    26    24    1
     2    27    24    1
     3    25    24    1
     4    24     2    1
     5    18    16    1
     6    22    20    1
     7    21    20    1
     8     2    20    1
     9     2    16    1
    10     2     3    1
    11    19    16    1
    12    20    23    1
    13    16    17    1
    14    13    12    1
    15     3     1    1
    16    12    14    1
    17    12     1    1
    18    12    15    1
    19     1     4    1
    20     1     8    1
    21     5     4    1
    22     7     4    1
    23     4     6    1
    24    11     8    1
    25     8     9    1
    26     8    10    1
