@<TRIPOS>MOLECULE
13
 21 20 0 0 0
SMALL
GASTEIGER

@<TRIPOS>ATOM
      1 SI        -12.7142   14.3815   11.3139 Si      1  UNL1        0.0000
      2 H         -12.4785   14.2604   12.7845 H       1  UNL1        0.0000
      3 C         -13.7090   12.8079   10.8818 C.3     1  UNL1        0.0000
      4 H         -14.7401   12.8869   11.2099 H       1  UNL1        0.0000
      5 H         -13.2757   11.9343   11.3587 H       1  UNL1        0.0000
      6 H         -13.7190   12.6236    9.8145 H       1  UNL1        0.0000
      7 C         -11.0229   14.2165   10.4388 C.3     1  UNL1        0.0000
      8 H         -11.1467   14.1237    9.3640 H       1  UNL1        0.0000
      9 H         -10.4804   13.3402   10.7803 H       1  UNL1        0.0000
     10 H         -10.4009   15.0870   10.6251 H       1  UNL1        0.0000
     11 SI        -14.1266   16.2912    9.4591 Si      1  UNL1        0.0000
     12 H         -15.1154   17.3956    9.6394 H       1  UNL1        0.0000
     13 N         -13.5410   15.8584   11.0178 N.3     1  UNL1        0.0000
     14 C         -15.0434   14.9237    8.4956 C.3     1  UNL1        0.0000
     15 H         -15.7388   14.3875    9.1302 H       1  UNL1        0.0000
     16 H         -14.3513   14.2005    8.0781 H       1  UNL1        0.0000
     17 H         -15.6068   15.3489    7.6711 H       1  UNL1        0.0000
     18 C         -12.7800   16.9116    8.2413 C.3     1  UNL1        0.0000
     19 H         -12.1947   17.7160    8.6765 H       1  UNL1        0.0000
     20 H         -13.2182   17.2780    7.3172 H       1  UNL1        0.0000
     21 H         -12.0908   16.1138    7.9823 H       1  UNL1        0.0000
@<TRIPOS>BOND
     1    20    18    1
     2    17    14    1
     3    21    18    1
     4    16    14    1
     5    18    19    1
     6    18    11    1
     7    14    15    1
     8    14    11    1
     9     8     7    1
    10    11    12    1
    11    11    13    1
    12     6     3    1
    13     7    10    1
    14     7     9    1
    15     7     1    1
    16     3     4    1
    17     3     1    1
    18     3     5    1
    19    13     1    1
    20     1     2    1
