@<TRIPOS>MOLECULE
1
 43 43 0 0 0
SMALL
GASTEIGER

@<TRIPOS>ATOM
      1 N           9.6663    4.9598    9.6549 N.pl3   1  UNL1        0.0000
      2 SI         10.5642    6.0651    8.7426 Si      1  UNL1        0.0000
      3 C           8.8497    3.9384    9.2091 C.ar    1  UNL1        0.0000
      4 C           9.3508    2.6168    9.0478 C.ar    1  UNL1        0.0000
      5 C           8.5007    1.6011    8.6567 C.ar    1  UNL1        0.0000
      6 H           8.8749    0.5914    8.5579 H       1  UNL1        0.0000
      7 C           7.1661    1.8484    8.3798 C.ar    1  UNL1        0.0000
      8 H           6.5139    1.0411    8.0735 H       1  UNL1        0.0000
      9 C           6.6727    3.1374    8.4977 C.ar    1  UNL1        0.0000
     10 H           5.6295    3.3167    8.2770 H       1  UNL1        0.0000
     11 C           7.4857    4.1852    8.8850 C.ar    1  UNL1        0.0000
     12 C           9.9992    6.1666    6.9106 C.3     1  UNL1        0.0000
     13 H          10.7653    6.5990    6.2736 H       1  UNL1        0.0000
     14 H           9.0965    6.7576    6.7927 H       1  UNL1        0.0000
     15 H           9.7823    5.1692    6.5393 H       1  UNL1        0.0000
     16 C          12.4654    5.7373    8.6365 C.3     1  UNL1        0.0000
     17 H          12.8743    5.4892    9.6116 H       1  UNL1        0.0000
     18 H          12.9945    6.6158    8.2750 H       1  UNL1        0.0000
     19 H          12.7001    4.9176    7.9621 H       1  UNL1        0.0000
     20 C          10.3820    7.7781    9.5976 C.3     1  UNL1        0.0000
     21 H           9.6969    8.4338    9.0674 H       1  UNL1        0.0000
     22 H          11.3323    8.2957    9.6838 H       1  UNL1        0.0000
     23 H           9.9880    7.6359   10.6031 H       1  UNL1        0.0000
     24 C          10.8037    2.3666    9.3779 C.3     1  UNL1        0.0000
     25 H          11.3477    3.2788    9.1140 H       1  UNL1        0.0000
     26 C          11.4244    1.1998    8.6109 C.3     1  UNL1        0.0000
     27 H          11.0308    0.2459    8.9565 H       1  UNL1        0.0000
     28 H          12.5029    1.1902    8.7634 H       1  UNL1        0.0000
     29 H          11.2274    1.2929    7.5445 H       1  UNL1        0.0000
     30 C          10.9540    2.1574   10.8884 C.3     1  UNL1        0.0000
     31 H          10.4250    1.2620   11.2082 H       1  UNL1        0.0000
     32 H          10.5296    3.0223   11.4271 H       1  UNL1        0.0000
     33 H          12.0013    2.0604   11.1686 H       1  UNL1        0.0000
     34 C           6.9510    5.5910    9.0421 C.3     1  UNL1        0.0000
     35 H           7.7788    6.2736    8.8255 H       1  UNL1        0.0000
     36 C           5.8003    5.9229    8.0923 C.3     1  UNL1        0.0000
     37 H           4.8902    5.3958    8.3725 H       1  UNL1        0.0000
     38 H           6.0589    5.6528    7.0703 H       1  UNL1        0.0000
     39 H           5.5901    6.9914    8.1246 H       1  UNL1        0.0000
     40 C           6.5276    5.8245   10.4972 C.3     1  UNL1        0.0000
     41 H           5.7490    5.1192   10.7836 H       1  UNL1        0.0000
     42 H           6.1509    6.8373   10.6328 H       1  UNL1        0.0000
     43 H           7.3960    5.6904   11.1746 H       1  UNL1        0.0000
@<TRIPOS>BOND
     1    13    12    1
     2    15    12    1
     3    14    12    1
     4    12     2    1
     5    38    36    1
     6    29    26    1
     7    19    16    1
     8     8     7    1
     9    36    39    1
    10    36    37    1
    11    36    34    1
    12    18    16    1
    13    10     9    1
    14     7     9   ar
    15     7     5   ar
    16     9    11   ar
    17     6     5    1
    18    26    28    1
    19    26    27    1
    20    26    24    1
    21    16     2    1
    22    16    17    1
    23     5     4   ar
    24     2    20    1
    25     2     1    1
    26    35    34    1
    27    11    34    1
    28    11     3   ar
    29    34    40    1
    30     4     3   ar
    31     4    24    1
    32    21    20    1
    33    25    24    1
    34     3     1    1
    35    24    30    1
    36    20    22    1
    37    20    23    1
    38    40    42    1
    39    40    41    1
    40    40    43    1
    41    30    33    1
    42    30    31    1
    43    30    32    1
