@<TRIPOS>MOLECULE
1
 43 43 0 0 0
SMALL
GASTEIGER

@<TRIPOS>ATOM
      1 N           8.6997    4.9215   13.5660 N.pl3   1  UNL1        0.0000
      2 SI          7.8313    5.9937   14.5445 Si      1  UNL1        0.0000
      3 C           9.4849    3.8547   13.9626 C.ar    1  UNL1        0.0000
      4 C          10.8568    4.0436   14.2937 C.ar    1  UNL1        0.0000
      5 C          11.6357    2.9560   14.6389 C.ar    1  UNL1        0.0000
      6 H          12.6843    3.0933   14.8648 H       1  UNL1        0.0000
      7 C          11.1008    1.6800   14.7084 C.ar    1  UNL1        0.0000
      8 H          11.7263    0.8409   14.9832 H       1  UNL1        0.0000
      9 C           9.7589    1.4872   14.4238 C.ar    1  UNL1        0.0000
     10 H           9.3519    0.4873   14.4844 H       1  UNL1        0.0000
     11 C           8.9417    2.5441   14.0734 C.ar    1  UNL1        0.0000
     12 C           8.3659    5.9221   16.3862 C.3     1  UNL1        0.0000
     13 H           9.3328    6.3886   16.5472 H       1  UNL1        0.0000
     14 H           8.4509    4.8870   16.7041 H       1  UNL1        0.0000
     15 H           7.6473    6.4122   17.0365 H       1  UNL1        0.0000
     16 C           5.9161    5.7416   14.5894 C.3     1  UNL1        0.0000
     17 H           5.5198    5.5810   13.5910 H       1  UNL1        0.0000
     18 H           5.4163    6.6146   15.0020 H       1  UNL1        0.0000
     19 H           5.6309    4.8875   15.1986 H       1  UNL1        0.0000
     20 C           8.0924    7.7691   13.8526 C.3     1  UNL1        0.0000
     21 H           8.8687    8.3089   14.3874 H       1  UNL1        0.0000
     22 H           7.1854    8.3638   13.9007 H       1  UNL1        0.0000
     23 H           8.3956    7.7091   12.8093 H       1  UNL1        0.0000
     24 C          11.4378    5.4355   14.1876 C.3     1  UNL1        0.0000
     25 H          10.6295    6.1372   14.4170 H       1  UNL1        0.0000
     26 C          11.8833    5.6982   12.7442 C.3     1  UNL1        0.0000
     27 H          12.6445    4.9790   12.4456 H       1  UNL1        0.0000
     28 H          12.2898    6.7031   12.6405 H       1  UNL1        0.0000
     29 H          11.0186    5.6067   12.0557 H       1  UNL1        0.0000
     30 C          12.5877    5.7002   15.1591 C.3     1  UNL1        0.0000
     31 H          12.3095    5.4064   16.1693 H       1  UNL1        0.0000
     32 H          12.8321    6.7619   15.1629 H       1  UNL1        0.0000
     33 H          13.4836    5.1532   14.8718 H       1  UNL1        0.0000
     34 C           7.4814    2.3523   13.7366 C.3     1  UNL1        0.0000
     35 H           6.9665    3.2706   14.0353 H       1  UNL1        0.0000
     36 C           6.8242    1.1778   14.4603 C.3     1  UNL1        0.0000
     37 H           7.1853    0.2255   14.0768 H       1  UNL1        0.0000
     38 H           5.7456    1.2096   14.3112 H       1  UNL1        0.0000
     39 H           7.0264    1.2230   15.5288 H       1  UNL1        0.0000
     40 C           7.3241    2.2043   12.2197 C.3     1  UNL1        0.0000
     41 H           7.7758    3.0747   11.7130 H       1  UNL1        0.0000
     42 H           6.2741    2.1513   11.9375 H       1  UNL1        0.0000
     43 H           7.8243    1.3051   11.8659 H       1  UNL1        0.0000
@<TRIPOS>BOND
     1    41    40    1
     2    43    40    1
     3    42    40    1
     4    29    26    1
     5    40    34    1
     6    27    26    1
     7    28    26    1
     8    26    24    1
     9    23    20    1
    10     1     3    1
    11     1     2    1
    12    17    16    1
    13    34    35    1
    14    34    11    1
    15    34    36    1
    16    20    22    1
    17    20    21    1
    18    20     2    1
    19     3    11   ar
    20     3     4   ar
    21    11     9   ar
    22    37    36    1
    23    24     4    1
    24    24    25    1
    25    24    30    1
    26     4     5   ar
    27    38    36    1
    28     9    10    1
    29     9     7   ar
    30    36    39    1
    31     2    16    1
    32     2    12    1
    33    16    18    1
    34    16    19    1
    35     5     7   ar
    36     5     6    1
    37     7     8    1
    38    33    30    1
    39    30    32    1
    40    30    31    1
    41    12    13    1
    42    12    14    1
    43    12    15    1
