@<TRIPOS>MOLECULE
1
 41 42 0 0 0
SMALL
GASTEIGER

@<TRIPOS>ATOM
      1 N           4.5649    6.3070   14.9120 N.3     1  UNL1        0.0000
      2 SI          3.7362    6.8586   16.3186 Si      1  UNL1        0.0000
      3 SI          6.1886    5.7306   14.8798 Si      1  UNL1        0.0000
      4 C           4.2322    8.6238   16.8673 C.3     1  UNL1        0.0000
      5 C           3.9359    5.7174   17.8366 C.3     1  UNL1        0.0000
      6 C           1.9369    6.9260   15.7245 C.ar    1  UNL1        0.0000
      7 C           0.8882    6.2293   16.3102 C.ar    1  UNL1        0.0000
      8 C          -0.3924    6.2875   15.7862 C.ar    1  UNL1        0.0000
      9 C          -0.6448    7.0504   14.6583 C.ar    1  UNL1        0.0000
     10 C           0.3880    7.7565   14.0626 C.ar    1  UNL1        0.0000
     11 C           1.6655    7.6897   14.5914 C.ar    1  UNL1        0.0000
     12 C           6.3901    3.9482   15.5475 C.3     1  UNL1        0.0000
     13 C           7.4264    6.8330   15.8278 C.3     1  UNL1        0.0000
     14 C           6.5651    5.6901   13.0219 C.ar    1  UNL1        0.0000
     15 C           7.6024    6.3842   12.4131 C.ar    1  UNL1        0.0000
     16 C           7.7858    6.3409   11.0410 C.ar    1  UNL1        0.0000
     17 C           6.9265    5.5958   10.2508 C.ar    1  UNL1        0.0000
     18 C           5.8881    4.8934   10.8407 C.ar    1  UNL1        0.0000
     19 C           5.7102    4.9453   12.2124 C.ar    1  UNL1        0.0000
     20 H           3.6475    8.9499   17.7221 H       1  UNL1        0.0000
     21 H           4.0743    9.3372   16.0654 H       1  UNL1        0.0000
     22 H           5.2791    8.6680   17.1467 H       1  UNL1        0.0000
     23 H           3.3017    6.0380   18.6566 H       1  UNL1        0.0000
     24 H           4.9617    5.7421   18.1876 H       1  UNL1        0.0000
     25 H           3.6946    4.6854   17.6089 H       1  UNL1        0.0000
     26 H           1.0750    5.6331   17.1913 H       1  UNL1        0.0000
     27 H          -1.1960    5.7392   16.2574 H       1  UNL1        0.0000
     28 H          -1.6448    7.1003   14.2514 H       1  UNL1        0.0000
     29 H           0.1996    8.3641   13.1908 H       1  UNL1        0.0000
     30 H           2.4576    8.2865   14.1576 H       1  UNL1        0.0000
     31 H           7.4066    3.5904   15.4149 H       1  UNL1        0.0000
     32 H           5.7271    3.2639   15.0289 H       1  UNL1        0.0000
     33 H           6.1567    3.8962   16.6052 H       1  UNL1        0.0000
     34 H           8.4460    6.4874   15.6915 H       1  UNL1        0.0000
     35 H           7.2107    6.8051   16.8902 H       1  UNL1        0.0000
     36 H           7.3785    7.8693   15.5130 H       1  UNL1        0.0000
     37 H           8.2791    6.9661   13.0213 H       1  UNL1        0.0000
     38 H           8.6005    6.8865   10.5859 H       1  UNL1        0.0000
     39 H           7.0723    5.5567    9.1806 H       1  UNL1        0.0000
     40 H           5.2207    4.2989   10.2358 H       1  UNL1        0.0000
     41 H           4.9344    4.3495   12.6756 H       1  UNL1        0.0000
@<TRIPOS>BOND
     1    39    17    1
     2    40    18    1
     3    17    18   ar
     4    17    16   ar
     5    38    16    1
     6    18    19   ar
     7    16    15   ar
     8    19    41    1
     9    19    14   ar
    10    15    37    1
    11    15    14   ar
    12    14     3    1
    13    29    10    1
    14    10    11   ar
    15    10     9   ar
    16    30    11    1
    17    28     9    1
    18    11     6   ar
    19     9     8   ar
    20     3     1    1
    21     3    12    1
    22     3    13    1
    23     1     2    1
    24    32    12    1
    25    31    12    1
    26    36    13    1
    27    12    33    1
    28    34    13    1
    29     6     7   ar
    30     6     2    1
    31     8    27    1
    32     8     7   ar
    33    13    35    1
    34    21     4    1
    35     7    26    1
    36     2     4    1
    37     2     5    1
    38     4    22    1
    39     4    20    1
    40    25     5    1
    41     5    24    1
    42     5    23    1
