@<TRIPOS>MOLECULE
1
 41 42 0 0 0
SMALL
GASTEIGER

@<TRIPOS>ATOM
      1 N           2.6979    6.3585   11.6587 N.3     1  UNL1        0.0000
      2 SI          1.7948    4.9543   11.2307 Si      1  UNL1        0.0000
      3 SI          2.8088    7.7909   10.7067 Si      1  UNL1        0.0000
      4 C          -0.0901    5.1280   11.5135 C.3     1  UNL1        0.0000
      5 C           2.0454    4.3883    9.4243 C.3     1  UNL1        0.0000
      6 C           2.4409    3.6672   12.4638 C.ar    1  UNL1        0.0000
      7 C           3.0277    2.4604   12.1068 C.ar    1  UNL1        0.0000
      8 C           3.5251    1.5938   13.0657 C.ar    1  UNL1        0.0000
      9 C           3.4420    1.9248   14.4078 C.ar    1  UNL1        0.0000
     10 C           2.8546    3.1221   14.7838 C.ar    1  UNL1        0.0000
     11 C           2.3628    3.9835   13.8183 C.ar    1  UNL1        0.0000
     12 C           1.1334    8.4000   10.0226 C.3     1  UNL1        0.0000
     13 C           4.0107    7.6444    9.2247 C.3     1  UNL1        0.0000
     14 C           3.5548    9.0346   11.9281 C.ar    1  UNL1        0.0000
     15 C           2.9571   10.2346   12.2903 C.ar    1  UNL1        0.0000
     16 C           3.5386   11.0709   13.2286 C.ar    1  UNL1        0.0000
     17 C           4.7380   10.7161   13.8229 C.ar    1  UNL1        0.0000
     18 C           5.3521    9.5251   13.4703 C.ar    1  UNL1        0.0000
     19 C           4.7616    8.6934   12.5347 C.ar    1  UNL1        0.0000
     20 H          -0.6077    4.1980   11.2992 H       1  UNL1        0.0000
     21 H          -0.5139    5.8965   10.8764 H       1  UNL1        0.0000
     22 H          -0.3037    5.3972   12.5424 H       1  UNL1        0.0000
     23 H           1.5490    3.4418    9.2362 H       1  UNL1        0.0000
     24 H           3.0931    4.2741    9.1709 H       1  UNL1        0.0000
     25 H           1.6236    5.1196    8.7435 H       1  UNL1        0.0000
     26 H           3.0953    2.1925   11.0626 H       1  UNL1        0.0000
     27 H           3.9771    0.6580   12.7681 H       1  UNL1        0.0000
     28 H           3.8263    1.2473   15.1571 H       1  UNL1        0.0000
     29 H           2.7726    3.3841   15.8276 H       1  UNL1        0.0000
     30 H           1.8541    4.8910   14.1175 H       1  UNL1        0.0000
     31 H           1.2363    9.3592    9.5258 H       1  UNL1        0.0000
     32 H           0.3860    8.5035   10.8010 H       1  UNL1        0.0000
     33 H           0.7497    7.6939    9.2944 H       1  UNL1        0.0000
     34 H           4.1040    8.5891    8.6979 H       1  UNL1        0.0000
     35 H           3.6680    6.9013    8.5131 H       1  UNL1        0.0000
     36 H           5.0007    7.3506    9.5574 H       1  UNL1        0.0000
     37 H           2.0229   10.5211   11.8303 H       1  UNL1        0.0000
     38 H           3.0582   12.0015   13.4964 H       1  UNL1        0.0000
     39 H           5.1955   11.3702   14.5516 H       1  UNL1        0.0000
     40 H           6.2934    9.2458   13.9181 H       1  UNL1        0.0000
     41 H           5.2710    7.7912   12.2209 H       1  UNL1        0.0000
@<TRIPOS>BOND
     1    35    13    1
     2    34    13    1
     3    25     5    1
     4    24     5    1
     5    13    36    1
     6    13     3    1
     7    23     5    1
     8    33    12    1
     9     5     2    1
    10    31    12    1
    11    12     3    1
    12    12    32    1
    13     3     1    1
    14     3    14    1
    15    21     4    1
    16    26     7    1
    17     2     4    1
    18     2     1    1
    19     2     6    1
    20    20     4    1
    21     4    22    1
    22    37    15    1
    23    14    15   ar
    24    14    19   ar
    25     7     6   ar
    26     7     8   ar
    27    41    19    1
    28    15    16   ar
    29     6    11   ar
    30    19    18   ar
    31    27     8    1
    32     8     9   ar
    33    16    38    1
    34    16    17   ar
    35    18    17   ar
    36    18    40    1
    37    11    30    1
    38    11    10   ar
    39    17    39    1
    40     9    10   ar
    41     9    28    1
    42    10    29    1
