@<TRIPOS>MOLECULE
1
 27 26 0 0 0
SMALL
GASTEIGER

@<TRIPOS>ATOM
      1 N           8.2597    2.1142    3.7674 N.3     1  UNL1        0.0000
      2 SI          9.2568    2.2871    5.1625 Si      1  UNL1        0.0000
      3 C           9.3805    4.1107    5.7747 C.3     1  UNL1        0.0000
      4 H           8.4146    4.5402    6.0148 H       1  UNL1        0.0000
      5 H           9.8772    4.7504    5.0518 H       1  UNL1        0.0000
      6 H           9.9740    4.1393    6.6829 H       1  UNL1        0.0000
      7 C          11.0841    1.8030    4.8848 C.3     1  UNL1        0.0000
      8 H          11.1713    0.7713    4.5666 H       1  UNL1        0.0000
      9 H          11.6576    1.9168    5.7985 H       1  UNL1        0.0000
     10 H          11.5494    2.4199    4.1246 H       1  UNL1        0.0000
     11 C           8.6698    1.2794    6.6859 C.3     1  UNL1        0.0000
     12 H           7.6810    1.5814    7.0186 H       1  UNL1        0.0000
     13 H           9.3477    1.4230    7.5221 H       1  UNL1        0.0000
     14 H           8.6381    0.2155    6.4718 H       1  UNL1        0.0000
     15 SI          8.6728    1.0705    2.4588 Si      1  UNL1        0.0000
     16 C           7.2291    1.1431    1.1964 C.3     1  UNL1        0.0000
     17 H           6.2877    0.8146    1.6477 H       1  UNL1        0.0000
     18 H           7.4192    0.4845    0.3520 H       1  UNL1        0.0000
     19 H           7.0918    2.1461    0.7935 H       1  UNL1        0.0000
     20 C          10.2734    1.5830    1.5262 C.3     1  UNL1        0.0000
     21 H          11.1098    0.9750    1.8514 H       1  UNL1        0.0000
     22 H          10.5358    2.6195    1.7111 H       1  UNL1        0.0000
     23 H          10.1683    1.4503    0.4538 H       1  UNL1        0.0000
     24 C           8.8805   -0.7740    2.9364 C.3     1  UNL1        0.0000
     25 H           9.6015   -0.8831    3.7397 H       1  UNL1        0.0000
     26 H           9.2350   -1.3608    2.0946 H       1  UNL1        0.0000
     27 H           7.9462   -1.2128    3.2744 H       1  UNL1        0.0000
@<TRIPOS>BOND
     1    18    16    1
     2    23    20    1
     3    19    16    1
     4    16    17    1
     5    16    15    1
     6    20    22    1
     7    20    21    1
     8    20    15    1
     9    26    24    1
    10    15    24    1
    11    15     1    1
    12    24    27    1
    13    24    25    1
    14     1     2    1
    15    10     7    1
    16     8     7    1
    17     7     2    1
    18     7     9    1
    19     5     3    1
    20     2     3    1
    21     2    11    1
    22     3     4    1
    23     3     6    1
    24    14    11    1
    25    11    12    1
    26    11    13    1
