@<TRIPOS>MOLECULE
1
 27 26 0 0 0
SMALL
GASTEIGER

@<TRIPOS>ATOM
      1 N           4.3259    1.2962    3.3800 N.3     1  UNL1        0.0000
      2 SI          4.2377   -0.2230    4.1713 Si      1  UNL1        0.0000
      3 C           5.7221   -0.2599    5.3907 C.3     1  UNL1        0.0000
      4 H           6.5989    0.2349    4.9602 H       1  UNL1        0.0000
      5 H           6.0123   -1.2778    5.6345 H       1  UNL1        0.0000
      6 H           5.4744    0.2359    6.3267 H       1  UNL1        0.0000
      7 C           4.4372   -1.7002    2.9639 C.3     1  UNL1        0.0000
      8 H           3.6494   -1.6890    2.2180 H       1  UNL1        0.0000
      9 H           4.3811   -2.6489    3.4881 H       1  UNL1        0.0000
     10 H           5.3864   -1.6693    2.4366 H       1  UNL1        0.0000
     11 C           2.6629   -0.5385    5.2107 C.3     1  UNL1        0.0000
     12 H           1.8275   -0.8012    4.5721 H       1  UNL1        0.0000
     13 H           2.3812    0.3435    5.7769 H       1  UNL1        0.0000
     14 H           2.8097   -1.3523    5.9139 H       1  UNL1        0.0000
     15 SI          3.0963    2.0436    2.4352 Si      1  UNL1        0.0000
     16 C           1.5060    1.0231    2.1854 C.3     1  UNL1        0.0000
     17 H           0.9371    0.9564    3.1044 H       1  UNL1        0.0000
     18 H           1.7406    0.0145    1.8666 H       1  UNL1        0.0000
     19 H           0.8686    1.4712    1.4312 H       1  UNL1        0.0000
     20 C           2.6010    3.7138    3.2498 C.3     1  UNL1        0.0000
     21 H           3.4618    4.3800    3.2942 H       1  UNL1        0.0000
     22 H           2.2319    3.5757    4.2624 H       1  UNL1        0.0000
     23 H           1.8277    4.2244    2.6831 H       1  UNL1        0.0000
     24 C           3.7796    2.4605    0.6904 C.3     1  UNL1        0.0000
     25 H           4.6801    3.0640    0.7779 H       1  UNL1        0.0000
     26 H           3.0573    3.0286    0.1114 H       1  UNL1        0.0000
     27 H           4.0245    1.5654    0.1259 H       1  UNL1        0.0000
@<TRIPOS>BOND
     1    26    24    1
     2    27    24    1
     3    24    25    1
     4    24    15    1
     5    19    16    1
     6    18    16    1
     7    16    15    1
     8    16    17    1
     9     8     7    1
    10    15    20    1
    11    15     1    1
    12    10     7    1
    13    23    20    1
    14     7     9    1
    15     7     2    1
    16    20    21    1
    17    20    22    1
    18     1     2    1
    19     2    11    1
    20     2     3    1
    21    12    11    1
    22     4     3    1
    23    11    13    1
    24    11    14    1
    25     3     5    1
    26     3     6    1
