@<TRIPOS>MOLECULE
1
 27 26 0 0 0
SMALL
GASTEIGER

@<TRIPOS>ATOM
      1 N           8.0409    6.5526    2.1090 N.3     1  UNL1        0.0000
      2 SI          7.0863    7.4315    3.2764 Si      1  UNL1        0.0000
      3 SI          8.9956    7.4315    0.9417 Si      1  UNL1        0.0000
      4 C           6.4880    6.1485    4.5648 C.3     1  UNL1        0.0000
      5 C           5.5634    8.2585    2.4613 C.3     1  UNL1        0.0000
      6 C           8.0448    8.8050    4.1995 C.3     1  UNL1        0.0000
      7 C           9.5939    6.1485   -0.3467 C.3     1  UNL1        0.0000
      8 C          10.5186    8.2585    1.7569 C.3     1  UNL1        0.0000
      9 C           8.0372    8.8050    0.0187 C.3     1  UNL1        0.0000
     10 H           5.4501    6.3087    4.8359 H       1  UNL1        0.0000
     11 H           7.0710    6.1844    5.4791 H       1  UNL1        0.0000
     12 H           6.5722    5.1442    4.1434 H       1  UNL1        0.0000
     13 H           4.7825    8.4421    3.1931 H       1  UNL1        0.0000
     14 H           5.1469    7.6347    1.6781 H       1  UNL1        0.0000
     15 H           5.8226    9.2142    2.0192 H       1  UNL1        0.0000
     16 H           7.4544    9.1884    5.0256 H       1  UNL1        0.0000
     17 H           8.2633    9.6381    3.5407 H       1  UNL1        0.0000
     18 H           8.9858    8.4470    4.6029 H       1  UNL1        0.0000
     19 H          10.6320    6.3083   -0.6173 H       1  UNL1        0.0000
     20 H           9.0112    6.1848   -1.2612 H       1  UNL1        0.0000
     21 H           9.5092    5.1441    0.0746 H       1  UNL1        0.0000
     22 H          11.2994    8.4421    1.0250 H       1  UNL1        0.0000
     23 H          10.9351    7.6345    2.5400 H       1  UNL1        0.0000
     24 H          10.2593    9.2141    2.1991 H       1  UNL1        0.0000
     25 H           8.6276    9.1884   -0.8075 H       1  UNL1        0.0000
     26 H           7.8188    9.6382    0.6775 H       1  UNL1        0.0000
     27 H           7.0962    8.4471   -0.3848 H       1  UNL1        0.0000
@<TRIPOS>BOND
     1    20     7    1
     2    25     9    1
     3    19     7    1
     4    27     9    1
     5     7    21    1
     6     7     3    1
     7     9    26    1
     8     9     3    1
     9     3     8    1
    10     3     1    1
    11    22     8    1
    12    14     5    1
    13     8    24    1
    14     8    23    1
    15    15     5    1
    16     1     2    1
    17     5    13    1
    18     5     2    1
    19     2     6    1
    20     2     4    1
    21    17     6    1
    22    12     4    1
    23     6    18    1
    24     6    16    1
    25     4    10    1
    26     4    11    1
