@<TRIPOS>MOLECULE
2
 27 26 0 0 0
SMALL
GASTEIGER

@<TRIPOS>ATOM
      1 SI         10.9353    4.0754    3.2769 Si      1  UNL1        0.0000
      2 N           9.6966    3.6878    2.1100 N.3     1  UNL1        0.0000
      3 C          10.1253    5.2379    4.5640 C.3     1  UNL1        0.0000
      4 C          12.4142    4.9776    2.4603 C.3     1  UNL1        0.0000
      5 C          11.6439    2.5593    4.2025 C.3     1  UNL1        0.0000
      6 H          10.7858    6.0540    4.8364 H       1  UNL1        0.0000
      7 H           9.8614    4.7157    5.4777 H       1  UNL1        0.0000
      8 H           9.2158    5.6707    4.1410 H       1  UNL1        0.0000
      9 H          12.9633    5.5640    3.1908 H       1  UNL1        0.0000
     10 H          12.0832    5.6480    1.6747 H       1  UNL1        0.0000
     11 H          13.1122    4.2735    2.0210 H       1  UNL1        0.0000
     12 H          12.2708    2.8797    5.0286 H       1  UNL1        0.0000
     13 H          12.2562    1.9521    3.5451 H       1  UNL1        0.0000
     14 H          10.8626    1.9245    4.6064 H       1  UNL1        0.0000
     15 SI          9.9795    2.4209    0.9435 Si      1  UNL1        0.0000
     16 C           8.5679    2.5426   -0.3439 C.3     1  UNL1        0.0000
     17 C           9.9360    0.6889    1.7596 C.3     1  UNL1        0.0000
     18 C          11.6471    2.5639    0.0181 C.3     1  UNL1        0.0000
     19 H           8.1858    1.5633   -0.6112 H       1  UNL1        0.0000
     20 H           8.8906    3.0259   -1.2601 H       1  UNL1        0.0000
     21 H           7.7416    3.1206    0.0765 H       1  UNL1        0.0000
     22 H           9.7048   -0.0797    1.0284 H       1  UNL1        0.0000
     23 H           9.1879    0.6400    2.5433 H       1  UNL1        0.0000
     24 H          10.8937    0.4367    2.2015 H       1  UNL1        0.0000
     25 H          11.6828    1.8604   -0.8078 H       1  UNL1        0.0000
     26 H          12.4787    2.3368    0.6758 H       1  UNL1        0.0000
     27 H          11.8069    3.5576   -0.3861 H       1  UNL1        0.0000
@<TRIPOS>BOND
     1    20    16    1
     2    25    18    1
     3    19    16    1
     4    27    18    1
     5    16    21    1
     6    16    15    1
     7    18    26    1
     8    18    15    1
     9    15    17    1
    10    15     2    1
    11    22    17    1
    12    10     4    1
    13    17    24    1
    14    17    23    1
    15    11     4    1
    16     2     1    1
    17     4     9    1
    18     4     1    1
    19     1     5    1
    20     1     3    1
    21    13     5    1
    22     8     3    1
    23     5    14    1
    24     5    12    1
    25     3     6    1
    26     3     7    1
