@<TRIPOS>MOLECULE
1
 27 26 0 0 0
SMALL
GASTEIGER

@<TRIPOS>ATOM
      1 N           6.3855    3.6879    2.1079 N.3     1  UNL1        0.0000
      2 SI          6.1025    2.4210    3.2745 Si      1  UNL1        0.0000
      3 SI          5.1468    4.0754    0.9410 Si      1  UNL1        0.0000
      4 C           7.5139    2.5428    4.5619 C.3     1  UNL1        0.0000
      5 C           6.1462    0.6890    2.4585 C.3     1  UNL1        0.0000
      6 C           4.4349    2.5640    4.1997 C.3     1  UNL1        0.0000
      7 C           5.9568    5.2378   -0.3462 C.3     1  UNL1        0.0000
      8 C           3.6679    4.9777    1.7574 C.3     1  UNL1        0.0000
      9 C           4.4382    2.5592    0.0155 C.3     1  UNL1        0.0000
     10 H           7.8961    1.5637    4.8296 H       1  UNL1        0.0000
     11 H           7.1914    3.0263    5.4780 H       1  UNL1        0.0000
     12 H           8.3404    3.1206    4.1416 H       1  UNL1        0.0000
     13 H           6.3773   -0.0796    3.1897 H       1  UNL1        0.0000
     14 H           6.8944    0.6400    1.6749 H       1  UNL1        0.0000
     15 H           5.1886    0.4367    2.0165 H       1  UNL1        0.0000
     16 H           4.3991    1.8605    5.0256 H       1  UNL1        0.0000
     17 H           3.6033    2.3369    3.5419 H       1  UNL1        0.0000
     18 H           4.2749    3.5577    4.6039 H       1  UNL1        0.0000
     19 H           5.2964    6.0540   -0.6185 H       1  UNL1        0.0000
     20 H           6.2207    4.7155   -1.2599 H       1  UNL1        0.0000
     21 H           6.8664    5.6705    0.0768 H       1  UNL1        0.0000
     22 H           3.1188    5.5641    1.0270 H       1  UNL1        0.0000
     23 H           3.9989    5.6480    2.5431 H       1  UNL1        0.0000
     24 H           2.9698    4.2736    2.1968 H       1  UNL1        0.0000
     25 H           3.8112    2.8795   -0.8107 H       1  UNL1        0.0000
     26 H           3.8259    1.9521    0.6730 H       1  UNL1        0.0000
     27 H           5.2195    1.9244   -0.3884 H       1  UNL1        0.0000
@<TRIPOS>BOND
     1    20     7    1
     2    25     9    1
     3    19     7    1
     4    27     9    1
     5     7    21    1
     6     7     3    1
     7     9    26    1
     8     9     3    1
     9     3     8    1
    10     3     1    1
    11    22     8    1
    12    14     5    1
    13     8    24    1
    14     8    23    1
    15    15     5    1
    16     1     2    1
    17     5    13    1
    18     5     2    1
    19     2     6    1
    20     2     4    1
    21    17     6    1
    22    12     4    1
    23     6    18    1
    24     6    16    1
    25     4    10    1
    26     4    11    1
