@<TRIPOS>MOLECULE
3
 27 26 0 0 0
SMALL
GASTEIGER

@<TRIPOS>ATOM
      1 SI          2.3337    6.3075    1.0669 Si      1  UNL1        0.0000
      2 SI         -0.6599    6.8630    1.0462 Si      1  UNL1        0.0000
      3 N           0.6964    5.8360    0.8160 N.3     1  UNL1        0.0000
      4 C           2.6601    7.2439    2.6995 C.3     1  UNL1        0.0000
      5 H           3.7221    7.3856    2.8695 H       1  UNL1        0.0000
      6 H           2.2565    6.7079    3.5514 H       1  UNL1        0.0000
      7 H           2.1982    8.2243    2.6734 H       1  UNL1        0.0000
      8 C           3.0557    7.3608   -0.3599 C.3     1  UNL1        0.0000
      9 H           4.0911    7.6273   -0.1734 H       1  UNL1        0.0000
     10 H           2.4958    8.2820   -0.4775 H       1  UNL1        0.0000
     11 H           3.0165    6.8275   -1.3049 H       1  UNL1        0.0000
     12 C           3.3359    4.6646    1.1353 C.3     1  UNL1        0.0000
     13 H           3.1808    4.0675    0.2276 H       1  UNL1        0.0000
     14 H           3.0655    4.0678    2.0067 H       1  UNL1        0.0000
     15 H           4.4017    4.8625    1.2018 H       1  UNL1        0.0000
     16 C          -1.0390    7.3734    2.8542 C.3     1  UNL1        0.0000
     17 H          -1.8644    8.0780    2.8946 H       1  UNL1        0.0000
     18 H          -0.1778    7.8532    3.3043 H       1  UNL1        0.0000
     19 H          -1.3014    6.5244    3.4761 H       1  UNL1        0.0000
     20 C          -2.1719    5.8212    0.4607 C.3     1  UNL1        0.0000
     21 H          -3.0928    6.1822    0.9083 H       1  UNL1        0.0000
     22 H          -2.0508    4.7733    0.7604 H       1  UNL1        0.0000
     23 H          -2.3004    5.8654   -0.6181 H       1  UNL1        0.0000
     24 C          -0.6157    8.5038    0.0629 C.3     1  UNL1        0.0000
     25 H          -1.5815    8.9990    0.0622 H       1  UNL1        0.0000
     26 H          -0.3175    8.3571   -0.9694 H       1  UNL1        0.0000
     27 H           0.1013    9.1812    0.5136 H       1  UNL1        0.0000
@<TRIPOS>BOND
     1    11     8    1
     2    26    24    1
     3    23    20    1
     4    10     8    1
     5     8     9    1
     6     8     1    1
     7    25    24    1
     8    24    27    1
     9    24     2    1
    10    13    12    1
    11    20    22    1
    12    20    21    1
    13    20     2    1
    14     3     2    1
    15     3     1    1
    16     2    16    1
    17     1    12    1
    18     1     4    1
    19    12    15    1
    20    12    14    1
    21     7     4    1
    22     4     5    1
    23     4     6    1
    24    16    17    1
    25    16    18    1
    26    16    19    1
