@<TRIPOS>MOLECULE
3
 21 20 0 0 0
SMALL
GASTEIGER

@<TRIPOS>ATOM
      1 SI          7.6039    2.4551    1.5268 Si      1  UNL1        0.0000
      2 SI          6.7889    2.3842   -1.3369 Si      1  UNL1        0.0000
      3 N           7.6620    3.1425   -0.0564 N.3     1  UNL1        0.0000
      4 C           4.8926    2.5867   -1.3017 C.3     1  UNL1        0.0000
      5 C           7.1372    0.5097   -1.4797 C.3     1  UNL1        0.0000
      6 C           5.9304    1.7299    2.0818 C.3     1  UNL1        0.0000
      7 C           8.8873    1.0415    1.7193 C.3     1  UNL1        0.0000
      8 H           8.2020    0.3002   -1.4720 H       1  UNL1        0.0000
      9 H           6.7275    0.1054   -2.3998 H       1  UNL1        0.0000
     10 H           6.6922   -0.0386   -0.6566 H       1  UNL1        0.0000
     11 H           4.4316    1.9550   -0.5493 H       1  UNL1        0.0000
     12 H           4.4576    2.3235   -2.2611 H       1  UNL1        0.0000
     13 H           4.6180    3.6143   -1.0876 H       1  UNL1        0.0000
     14 H           9.8243    1.2627    1.2154 H       1  UNL1        0.0000
     15 H           8.5094    0.1153    1.3003 H       1  UNL1        0.0000
     16 H           9.1140    0.8578    2.7650 H       1  UNL1        0.0000
     17 H           5.9724    1.3932    3.1131 H       1  UNL1        0.0000
     18 H           5.6442    0.8798    1.4717 H       1  UNL1        0.0000
     19 H           5.1412    2.4710    2.0092 H       1  UNL1        0.0000
     20 H           7.2838    2.9745   -2.6189 H       1  UNL1        0.0000
     21 H           7.9435    3.4937    2.5424 H       1  UNL1        0.0000
@<TRIPOS>BOND
     1    20     2    1
     2     9     5    1
     3    12     4    1
     4     5     8    1
     5     5     2    1
     6     5    10    1
     7     2     4    1
     8     2     3    1
     9     4    13    1
    10     4    11    1
    11     3     1    1
    12    14     7    1
    13    15     7    1
    14    18     6    1
    15     1     7    1
    16     1     6    1
    17     1    21    1
    18     7    16    1
    19    19     6    1
    20     6    17    1
