@<TRIPOS>MOLECULE
3
 21 20 0 0 0
SMALL
GASTEIGER

@<TRIPOS>ATOM
      1 SI          5.9821    6.6176   -1.8406 Si      1  UNL1        0.0000
      2 SI          8.6137    8.1368   -1.8205 Si      1  UNL1        0.0000
      3 N           7.7055    6.6841   -1.6881 N.3     1  UNL1        0.0000
      4 C           8.3488    9.0388   -3.4792 C.3     1  UNL1        0.0000
      5 C           8.4529    9.4287   -0.4247 C.3     1  UNL1        0.0000
      6 C           5.0568    8.2875   -1.8392 C.3     1  UNL1        0.0000
      7 C           5.4994    5.7584   -3.4797 C.3     1  UNL1        0.0000
      8 H           7.4845    9.9176   -0.4496 H       1  UNL1        0.0000
      9 H           9.2105   10.2024   -0.5105 H       1  UNL1        0.0000
     10 H           8.5617    8.9651    0.5510 H       1  UNL1        0.0000
     11 H           3.9828    8.1335   -1.8711 H       1  UNL1        0.0000
     12 H           5.3244    8.8877   -2.7017 H       1  UNL1        0.0000
     13 H           5.2791    8.8667   -0.9500 H       1  UNL1        0.0000
     14 H           7.4241    9.6036   -3.4804 H       1  UNL1        0.0000
     15 H           8.3061    8.3366   -4.3044 H       1  UNL1        0.0000
     16 H           9.1564    9.7359   -3.6764 H       1  UNL1        0.0000
     17 H           5.8458    4.7311   -3.5097 H       1  UNL1        0.0000
     18 H           5.9145    6.2779   -4.3379 H       1  UNL1        0.0000
     19 H           4.4209    5.7438   -3.5963 H       1  UNL1        0.0000
     20 H           5.4082    5.8287   -0.6983 H       1  UNL1        0.0000
     21 H          10.0747    7.7350   -1.8261 H       1  UNL1        0.0000
@<TRIPOS>BOND
     1    18     7    1
     2    15     4    1
     3    16     4    1
     4    19     7    1
     5    17     7    1
     6    14     4    1
     7     7     1    1
     8     4     2    1
     9    12     6    1
    10    11     6    1
    11     1     6    1
    12     1     3    1
    13     1    20    1
    14     6    13    1
    15    21     2    1
    16     2     3    1
    17     2     5    1
    18     9     5    1
    19     8     5    1
    20     5    10    1
