@<TRIPOS>MOLECULE
1
 9 8 0 0 0
SMALL
GASTEIGER

@<TRIPOS>ATOM
      1 N           3.9957    7.8057   11.5002 N.3     1  UNL1       -0.2469
      2 C           3.9855    8.9402   10.6043 C.3     1  UNL1        0.0021
      3 H           4.1572    9.8968   11.1379 H       1  UNL1        0.0405
      4 H           3.0118    9.0327   10.0905 H       1  UNL1        0.0405
      5 H           4.7668    8.8141    9.8445 H       1  UNL1        0.0405
      6 C           2.9765    7.9360   12.5213 C.3     1  UNL1        0.0021
      7 H           1.9669    7.9455   12.0729 H       1  UNL1        0.0405
      8 H           3.0790    8.8766   13.0979 H       1  UNL1        0.0405
      9 H           3.0295    7.0869   13.2155 H       1  UNL1        0.0405
@<TRIPOS>BOND
     1     5     2    1
     2     4     2    1
     3     2     3    1
     4     2     1    1
     5     1     6    1
     6     7     6    1
     7     6     8    1
     8     6     9    1
