@<TRIPOS>MOLECULE
3
 27 26 0 0 0
SMALL
GASTEIGER

@<TRIPOS>ATOM
      1 SI          2.4803   15.8643    7.2096 Si      1  UNL1        0.0000
      2 SI          3.7630   15.9310    9.9064 Si      1  UNL1        0.0000
      3 N           3.6701   15.2716    8.3083 N.3     1  UNL1        0.0000
      4 C           4.7673   14.6784   10.9532 C.3     1  UNL1        0.0000
      5 H           4.4904   13.6504   10.7001 H       1  UNL1        0.0000
      6 H           4.5869   14.8062   12.0165 H       1  UNL1        0.0000
      7 H           5.8373   14.8030   10.7913 H       1  UNL1        0.0000
      8 C           2.0827   16.2102   10.7737 C.3     1  UNL1        0.0000
      9 H           1.5249   16.9949   10.2759 H       1  UNL1        0.0000
     10 H           2.2157   16.5082   11.8087 H       1  UNL1        0.0000
     11 H           1.4725   15.3140   10.7605 H       1  UNL1        0.0000
     12 C           4.7090   17.6016    9.9723 C.3     1  UNL1        0.0000
     13 H           5.7579   17.4936    9.7112 H       1  UNL1        0.0000
     14 H           4.6666   18.0271   10.9697 H       1  UNL1        0.0000
     15 H           4.2711   18.3210    9.2903 H       1  UNL1        0.0000
     16 C           2.2784   17.7645    7.1719 C.3     1  UNL1        0.0000
     17 H           2.0046   18.1455    8.1491 H       1  UNL1        0.0000
     18 H           1.4966   18.0517    6.4759 H       1  UNL1        0.0000
     19 H           3.1894   18.2643    6.8639 H       1  UNL1        0.0000
     20 C           0.7092   15.2035    7.5503 C.3     1  UNL1        0.0000
     21 H           0.7105   14.1708    7.8807 H       1  UNL1        0.0000
     22 H           0.0865   15.2685    6.6628 H       1  UNL1        0.0000
     23 H           0.2297   15.7877    8.3282 H       1  UNL1        0.0000
     24 C           2.9748   15.3482    5.4286 C.3     1  UNL1        0.0000
     25 H           3.3190   16.2024    4.8557 H       1  UNL1        0.0000
     26 H           2.1374   14.9107    4.8955 H       1  UNL1        0.0000
     27 H           3.7783   14.6160    5.4382 H       1  UNL1        0.0000
@<TRIPOS>BOND
     1    25    24    1
     2    26    24    1
     3    24    27    1
     4    24     1    1
     5    18    16    1
     6    22    20    1
     7    19    16    1
     8    16     1    1
     9    16    17    1
    10     1    20    1
    11     1     3    1
    12    20    21    1
    13    20    23    1
    14     3     2    1
    15    15    12    1
    16    13    12    1
    17     2    12    1
    18     2     8    1
    19     2     4    1
    20    12    14    1
    21     9     8    1
    22     5     4    1
    23    11     8    1
    24     8    10    1
    25     7     4    1
    26     4     6    1
