@<TRIPOS>MOLECULE
1
 27 26 0 0 0
SMALL
GASTEIGER

@<TRIPOS>ATOM
      1 N          -0.5664    1.8652   -0.4269 N.3     1  UNL1        0.0000
      2 SI          0.1420    2.8851   -1.6401 Si      1  UNL1        0.0000
      3 SI         -1.7592    2.5598    0.6297 Si      1  UNL1        0.0000
      4 C           1.4866    1.8750   -2.5409 C.3     1  UNL1        0.0000
      5 C           0.9234    4.5042   -0.9618 C.3     1  UNL1        0.0000
      6 C          -1.0003    3.5356   -3.0480 C.3     1  UNL1        0.0000
      7 C          -2.8486    3.9392   -0.1394 C.3     1  UNL1        0.0000
      8 C          -3.0273    1.2308    1.1876 C.3     1  UNL1        0.0000
      9 C          -0.9798    3.4123    2.1707 C.3     1  UNL1        0.0000
     10 H           2.3347    1.6765   -1.8948 H       1  UNL1        0.0000
     11 H           1.8487    2.4070   -3.4150 H       1  UNL1        0.0000
     12 H           1.0870    0.9187   -2.8754 H       1  UNL1        0.0000
     13 H           1.6484    4.3297   -0.1756 H       1  UNL1        0.0000
     14 H           0.1583    5.1608   -0.5609 H       1  UNL1        0.0000
     15 H           1.4280    5.0441   -1.7571 H       1  UNL1        0.0000
     16 H          -1.7719    4.1966   -2.6734 H       1  UNL1        0.0000
     17 H          -1.4905    2.7440   -3.6032 H       1  UNL1        0.0000
     18 H          -0.4079    4.1073   -3.7569 H       1  UNL1        0.0000
     19 H          -3.5970    4.2660    0.5759 H       1  UNL1        0.0000
     20 H          -3.3749    3.5986   -1.0248 H       1  UNL1        0.0000
     21 H          -2.2635    4.8089   -0.4147 H       1  UNL1        0.0000
     22 H          -3.9965    1.4158    0.7346 H       1  UNL1        0.0000
     23 H          -3.1757    1.2499    2.2632 H       1  UNL1        0.0000
     24 H          -2.7013    0.2332    0.9000 H       1  UNL1        0.0000
     25 H          -0.4337    2.7204    2.8031 H       1  UNL1        0.0000
     26 H          -1.7505    3.8743    2.7804 H       1  UNL1        0.0000
     27 H          -0.2906    4.1957    1.8721 H       1  UNL1        0.0000
@<TRIPOS>BOND
     1    18     6    1
     2    17     6    1
     3    11     4    1
     4     6    16    1
     5     6     2    1
     6    12     4    1
     7     4    10    1
     8     4     2    1
     9    15     5    1
    10     2     5    1
    11     2     1    1
    12    20     7    1
    13     5    14    1
    14     5    13    1
    15     1     3    1
    16    21     7    1
    17     7    19    1
    18     7     3    1
    19     3     8    1
    20     3     9    1
    21    22     8    1
    22    24     8    1
    23     8    23    1
    24    27     9    1
    25     9    26    1
    26     9    25    1
