@<TRIPOS>MOLECULE
1
 27 26 0 0 0
SMALL
GASTEIGER

@<TRIPOS>ATOM
      1 N          -1.3320   -1.4229   -0.4268 N.3     1  UNL1        0.0000
      2 SI         -2.5695   -1.3196   -1.6400 Si      1  UNL1        0.0000
      3 SI         -1.3371   -2.8033    0.6299 Si      1  UNL1        0.0000
      4 C          -2.3672    0.3499   -2.5410 C.3     1  UNL1        0.0000
      5 C          -4.3624   -1.4524   -0.9620 C.3     1  UNL1        0.0000
      6 C          -2.5617   -2.6340   -3.0481 C.3     1  UNL1        0.0000
      7 C          -1.9872   -4.4363   -0.1393 C.3     1  UNL1        0.0000
      8 C           0.4480   -3.2370    1.1877 C.3     1  UNL1        0.0000
      9 C          -2.4653   -2.5545    2.1707 C.3     1  UNL1        0.0000
     10 H          -2.6194    1.1837   -1.8949 H       1  UNL1        0.0000
     11 H          -3.0090    0.3975   -3.4150 H       1  UNL1        0.0000
     12 H          -1.3394    0.4819   -2.8755 H       1  UNL1        0.0000
     13 H          -4.5741   -0.7374   -0.1758 H       1  UNL1        0.0000
     14 H          -4.5484   -2.4434   -0.5611 H       1  UNL1        0.0000
     15 H          -5.0824   -1.2855   -1.7573 H       1  UNL1        0.0000
     16 H          -2.7481   -3.6327   -2.6734 H       1  UNL1        0.0000
     17 H          -1.6312   -2.6626   -3.6034 H       1  UNL1        0.0000
     18 H          -3.3532   -2.4070   -3.7569 H       1  UNL1        0.0000
     19 H          -1.8960   -5.2476    0.5762 H       1  UNL1        0.0000
     20 H          -1.4288   -4.7218   -1.0244 H       1  UNL1        0.0000
     21 H          -3.0329   -4.3646   -0.4148 H       1  UNL1        0.0000
     22 H           0.7716   -4.1693    0.7349 H       1  UNL1        0.0000
     23 H           0.5058   -3.3748    2.2633 H       1  UNL1        0.0000
     24 H           1.1492   -2.4564    0.8997 H       1  UNL1        0.0000
     25 H          -2.1393   -1.7356    2.8032 H       1  UNL1        0.0000
     26 H          -2.4799   -3.4529    2.7803 H       1  UNL1        0.0000
     27 H          -3.4884   -2.3495    1.8722 H       1  UNL1        0.0000
@<TRIPOS>BOND
     1    18     6    1
     2    17     6    1
     3    11     4    1
     4     6    16    1
     5     6     2    1
     6    12     4    1
     7     4    10    1
     8     4     2    1
     9    15     5    1
    10     2     5    1
    11     2     1    1
    12    20     7    1
    13     5    14    1
    14     5    13    1
    15     1     3    1
    16    21     7    1
    17     7    19    1
    18     7     3    1
    19     3     8    1
    20     3     9    1
    21    22     8    1
    22    24     8    1
    23     8    23    1
    24    27     9    1
    25     9    26    1
    26     9    25    1
