@<TRIPOS>MOLECULE
1
 27 26 0 0 0
SMALL
GASTEIGER

@<TRIPOS>ATOM
      1 N           1.8984   -0.4420   -0.4268 N.3     1  UNL1        0.0000
      2 SI          2.4276   -1.5654   -1.6400 Si      1  UNL1        0.0000
      3 SI          3.0964    0.2438    0.6298 Si      1  UNL1        0.0000
      4 C           0.8806   -2.2250   -2.5408 C.3     1  UNL1        0.0000
      5 C           3.4390   -3.0518   -0.9621 C.3     1  UNL1        0.0000
      6 C           3.5620   -0.9016   -3.0481 C.3     1  UNL1        0.0000
      7 C           4.8357    0.4970   -0.1393 C.3     1  UNL1        0.0000
      8 C           2.5794    2.0065    1.1878 C.3     1  UNL1        0.0000
      9 C           3.4449   -0.8580    2.1705 C.3     1  UNL1        0.0000
     10 H           0.2846   -2.8602   -1.8947 H       1  UNL1        0.0000
     11 H           1.1600   -2.8047   -3.4149 H       1  UNL1        0.0000
     12 H           0.2523   -1.4008   -2.8753 H       1  UNL1        0.0000
     13 H           2.9257   -3.5925   -0.1757 H       1  UNL1        0.0000
     14 H           4.3903   -2.7174   -0.5613 H       1  UNL1        0.0000
     15 H           3.6544   -3.7588   -1.7573 H       1  UNL1        0.0000
     16 H           4.5200   -0.5636   -2.6733 H       1  UNL1        0.0000
     17 H           3.1215   -0.0814   -3.6034 H       1  UNL1        0.0000
     18 H           3.7612   -1.7005   -3.7569 H       1  UNL1        0.0000
     19 H           5.4926    0.9816    0.5764 H       1  UNL1        0.0000
     20 H           4.8037    1.1236   -1.0243 H       1  UNL1        0.0000
     21 H           5.2966   -0.4443   -0.4150 H       1  UNL1        0.0000
     22 H           3.2252    2.7528    0.7352 H       1  UNL1        0.0000
     23 H           2.6696    2.1252    2.2634 H       1  UNL1        0.0000
     24 H           1.5528    2.2236    0.8996 H       1  UNL1        0.0000
     25 H           2.5728   -0.9850    2.8030 H       1  UNL1        0.0000
     26 H           4.2303   -0.4214    2.7801 H       1  UNL1        0.0000
     27 H           3.7789   -1.8466    1.8720 H       1  UNL1        0.0000
@<TRIPOS>BOND
     1    18     6    1
     2    17     6    1
     3    11     4    1
     4     6    16    1
     5     6     2    1
     6    12     4    1
     7     4    10    1
     8     4     2    1
     9    15     5    1
    10     2     5    1
    11     2     1    1
    12    20     7    1
    13     5    14    1
    14     5    13    1
    15     1     3    1
    16    21     7    1
    17     7    19    1
    18     7     3    1
    19     3     8    1
    20     3     9    1
    21    22     8    1
    22    24     8    1
    23     8    23    1
    24    27     9    1
    25     9    26    1
    26     9    25    1
