@<TRIPOS>MOLECULE
1
 27 26 0 0 0
SMALL
GASTEIGER

@<TRIPOS>ATOM
      1 N          -1.4368   -1.5365   -0.4702 N.3     1  UNL1        0.0000
      2 SI         -2.6365   -1.3876   -1.6902 Si      1  UNL1        0.0000
      3 SI         -1.4001   -2.8647    0.6242 Si      1  UNL1        0.0000
      4 C          -4.4478   -1.4594   -1.0600 C.3     1  UNL1        0.0000
      5 C          -2.3089    0.3073   -2.5159 C.3     1  UNL1        0.0000
      6 C          -2.6010   -2.6871   -3.1094 C.3     1  UNL1        0.0000
      7 C          -2.4844   -2.5728    2.1874 C.3     1  UNL1        0.0000
      8 C          -2.0271   -4.5350   -0.0787 C.3     1  UNL1        0.0000
      9 C           0.4364   -3.1725    1.1045 C.3     1  UNL1        0.0000
     10 H          -4.6047   -0.8452   -0.1809 H       1  UNL1        0.0000
     11 H          -4.7127   -2.4779   -0.7955 H       1  UNL1        0.0000
     12 H          -5.1458   -1.1299   -1.8229 H       1  UNL1        0.0000
     13 H          -2.5184    1.1272   -1.8348 H       1  UNL1        0.0000
     14 H          -2.9327    0.4396   -3.3951 H       1  UNL1        0.0000
     15 H          -1.2686    0.3900   -2.8370 H       1  UNL1        0.0000
     16 H          -3.3818   -2.4762   -3.8342 H       1  UNL1        0.0000
     17 H          -2.7770   -3.6865   -2.7291 H       1  UNL1        0.0000
     18 H          -1.6570   -2.7033   -3.6431 H       1  UNL1        0.0000
     19 H          -2.2694   -1.6242    2.6682 H       1  UNL1        0.0000
     20 H          -2.3369   -3.3588    2.9214 H       1  UNL1        0.0000
     21 H          -3.5364   -2.5729    1.9208 H       1  UNL1        0.0000
     22 H          -1.9311   -5.3270    0.6570 H       1  UNL1        0.0000
     23 H          -1.4687   -4.8371   -0.9585 H       1  UNL1        0.0000
     24 H          -3.0730   -4.4732   -0.3570 H       1  UNL1        0.0000
     25 H           0.8145   -4.0606    0.6067 H       1  UNL1        0.0000
     26 H           0.5501   -3.3428    2.1712 H       1  UNL1        0.0000
     27 H           1.0624   -2.3243    0.8160 H       1  UNL1        0.0000
@<TRIPOS>BOND
     1    16     6    1
     2    18     6    1
     3    14     5    1
     4     6    17    1
     5     6     2    1
     6    15     5    1
     7     5    13    1
     8     5     2    1
     9    12     4    1
    10     2     4    1
    11     2     1    1
    12     4    11    1
    13     4    10    1
    14    23     8    1
    15     1     3    1
    16    24     8    1
    17     8     3    1
    18     8    22    1
    19    25     9    1
    20     3     9    1
    21     3     7    1
    22    27     9    1
    23     9    26    1
    24    21     7    1
    25     7    19    1
    26     7    20    1
