@<TRIPOS>MOLECULE
1
 27 26 0 0 0
SMALL
GASTEIGER

@<TRIPOS>ATOM
      1 N           2.0490   -0.4761   -0.4701 N.3     1  UNL1        0.0000
      2 SI          2.5200   -1.5894   -1.6902 Si      1  UNL1        0.0000
      3 SI          3.1810    0.2199    0.6242 Si      1  UNL1        0.0000
      4 C           3.4879   -3.1222   -1.0599 C.3     1  UNL1        0.0000
      5 C           0.8884   -2.1533   -2.5159 C.3     1  UNL1        0.0000
      6 C           3.6276   -0.9090   -3.1094 C.3     1  UNL1        0.0000
      7 C           3.4705   -0.8651    2.1872 C.3     1  UNL1        0.0000
      8 C           4.9410    0.5122   -0.0788 C.3     1  UNL1        0.0000
      9 C           2.5293    1.9643    1.1044 C.3     1  UNL1        0.0000
     10 H           3.0343   -3.5652   -0.1809 H       1  UNL1        0.0000
     11 H           4.5023   -2.8422   -0.7954 H       1  UNL1        0.0000
     12 H           3.5516   -3.8914   -1.8229 H       1  UNL1        0.0000
     13 H           0.2831   -2.7446   -1.8347 H       1  UNL1        0.0000
     14 H           1.0857   -2.7597   -3.3950 H       1  UNL1        0.0000
     15 H           0.2966   -1.2937   -2.8370 H       1  UNL1        0.0000
     16 H           3.8355   -1.6906   -3.8343 H       1  UNL1        0.0000
     17 H           4.5812   -0.5616   -2.7290 H       1  UNL1        0.0000
     18 H           3.1696   -0.0833   -3.6431 H       1  UNL1        0.0000
     19 H           2.5414   -1.1532    2.6681 H       1  UNL1        0.0000
     20 H           4.0774   -0.3444    2.9212 H       1  UNL1        0.0000
     21 H           3.9965   -1.7761    1.9206 H       1  UNL1        0.0000
     22 H           5.5789    0.9913    0.6569 H       1  UNL1        0.0000
     23 H           4.9234    1.1468   -0.9586 H       1  UNL1        0.0000
     24 H           5.4105   -0.4245   -0.3571 H       1  UNL1        0.0000
     25 H           3.1093    2.7358    0.6067 H       1  UNL1        0.0000
     26 H           2.6199    2.1478    2.1711 H       1  UNL1        0.0000
     27 H           1.4817    2.0822    0.8159 H       1  UNL1        0.0000
@<TRIPOS>BOND
     1    16     6    1
     2    18     6    1
     3    14     5    1
     4     6    17    1
     5     6     2    1
     6    15     5    1
     7     5    13    1
     8     5     2    1
     9    12     4    1
    10     2     4    1
    11     2     1    1
    12     4    11    1
    13     4    10    1
    14    23     8    1
    15     1     3    1
    16    24     8    1
    17     8     3    1
    18     8    22    1
    19    25     9    1
    20     3     9    1
    21     3     7    1
    22    27     9    1
    23     9    26    1
    24    21     7    1
    25     7    19    1
    26     7    20    1
