@<TRIPOS>MOLECULE
1
 27 26 0 0 0
SMALL
GASTEIGER

@<TRIPOS>ATOM
      1 N          -0.6122    2.0125   -0.4700 N.3     1  UNL1        0.0000
      2 SI          0.1165    2.9771   -1.6901 Si      1  UNL1        0.0000
      3 SI         -1.7810    2.6448    0.6242 Si      1  UNL1        0.0000
      4 C           0.9600    4.5816   -1.0598 C.3     1  UNL1        0.0000
      5 C           1.4206    1.8460   -2.5160 C.3     1  UNL1        0.0000
      6 C          -1.0266    3.5960   -3.1092 C.3     1  UNL1        0.0000
      7 C          -0.9860    3.4380    2.1873 C.3     1  UNL1        0.0000
      8 C          -2.9141    4.0229   -0.0788 C.3     1  UNL1        0.0000
      9 C          -2.9658    1.2082    1.1044 C.3     1  UNL1        0.0000
     10 H           1.5704    4.4104   -0.1808 H       1  UNL1        0.0000
     11 H           0.2103    5.3201   -0.7953 H       1  UNL1        0.0000
     12 H           1.5943    5.0215   -1.8228 H       1  UNL1        0.0000
     13 H           2.2354    1.6175   -1.8349 H       1  UNL1        0.0000
     14 H           1.8470    2.3201   -3.3951 H       1  UNL1        0.0000
     15 H           0.9721    0.9037   -2.8371 H       1  UNL1        0.0000
     16 H          -0.4536    4.1669   -3.8341 H       1  UNL1        0.0000
     17 H          -1.8041    4.2481   -2.7290 H       1  UNL1        0.0000
     18 H          -1.5126    2.7867   -3.6431 H       1  UNL1        0.0000
     19 H          -0.2720    2.7774    2.6681 H       1  UNL1        0.0000
     20 H          -1.7404    3.7034    2.9213 H       1  UNL1        0.0000
     21 H          -0.4600    4.3490    1.9206 H       1  UNL1        0.0000
     22 H          -3.6478    4.3359    0.6570 H       1  UNL1        0.0000
     23 H          -3.4552    3.6902   -0.9584 H       1  UNL1        0.0000
     24 H          -2.3377    4.8977   -0.3574 H       1  UNL1        0.0000
     25 H          -3.9239    1.3248    0.6066 H       1  UNL1        0.0000
     26 H          -3.1701    1.1949    2.1710 H       1  UNL1        0.0000
     27 H          -2.5441    0.2420    0.8158 H       1  UNL1        0.0000
@<TRIPOS>BOND
     1    16     6    1
     2    18     6    1
     3    14     5    1
     4     6    17    1
     5     6     2    1
     6    15     5    1
     7     5    13    1
     8     5     2    1
     9    12     4    1
    10     2     4    1
    11     2     1    1
    12     4    11    1
    13     4    10    1
    14    23     8    1
    15     1     3    1
    16    24     8    1
    17     8     3    1
    18     8    22    1
    19    25     9    1
    20     3     9    1
    21     3     7    1
    22    27     9    1
    23     9    26    1
    24    21     7    1
    25     7    19    1
    26     7    20    1
