@<TRIPOS>MOLECULE
1
 31 31 0 0 0
SMALL
GASTEIGER

@<TRIPOS>ATOM
      1 N          -1.5400   10.9047    5.8197 N.pl3   1  UNL1       -0.2660
      2 H          -1.8122   11.7091    6.3878 H       1  UNL1        0.1699
      3 C          -1.4843    9.8092    6.6392 C.ar    1  UNL1        0.0512
      4 C          -2.0756    9.7999    7.9357 C.ar    1  UNL1       -0.0222
      5 C          -1.9785    8.6687    8.7259 C.ar    1  UNL1       -0.0565
      6 H          -2.4175    8.6637    9.7120 H       1  UNL1        0.0621
      7 C          -1.3329    7.5281    8.2814 C.ar    1  UNL1       -0.0611
      8 H          -1.2800    6.6509    8.9093 H       1  UNL1        0.0618
      9 C          -0.7235    7.5371    7.0380 C.ar    1  UNL1       -0.0565
     10 H          -0.1812    6.6595    6.7185 H       1  UNL1        0.0621
     11 C          -0.7730    8.6502    6.2194 C.ar    1  UNL1       -0.0222
     12 C          -2.7881   11.0389    8.4434 C.3     1  UNL1       -0.0197
     13 H          -3.2848   11.5292    7.5952 H       1  UNL1        0.0344
     14 C          -3.8817   10.7566    9.4738 C.3     1  UNL1       -0.0586
     15 H          -4.5603    9.9812    9.1232 H       1  UNL1        0.0235
     16 H          -4.4539   11.6673    9.6406 H       1  UNL1        0.0235
     17 H          -3.4594   10.4482   10.4273 H       1  UNL1        0.0235
     18 C          -1.7708   12.0199    9.0403 C.3     1  UNL1       -0.0586
     19 H          -0.9789   12.2463    8.3297 H       1  UNL1        0.0235
     20 H          -1.3134   11.5854    9.9274 H       1  UNL1        0.0235
     21 H          -2.2629   12.9504    9.3160 H       1  UNL1        0.0235
     22 C           0.0426    8.7124    4.9452 C.3     1  UNL1       -0.0197
     23 H          -0.4793    9.3763    4.2349 H       1  UNL1        0.0344
     24 C           0.2694    7.3639    4.2604 C.3     1  UNL1       -0.0586
     25 H          -0.6640    6.8214    4.1257 H       1  UNL1        0.0235
     26 H           0.9512    6.7420    4.8365 H       1  UNL1        0.0235
     27 H           0.7170    7.5233    3.2806 H       1  UNL1        0.0235
     28 C           1.3958    9.3487    5.2829 C.3     1  UNL1       -0.0586
     29 H           1.2420   10.3172    5.7494 H       1  UNL1        0.0235
     30 H           1.9952    9.4844    4.3856 H       1  UNL1        0.0235
     31 H           1.9417    8.7136    5.9786 H       1  UNL1        0.0235
@<TRIPOS>BOND
     1    27    24    1
     2    25    24    1
     3    23    22    1
     4    24    26    1
     5    24    22    1
     6    30    28    1
     7    22    28    1
     8    22    11    1
     9    28    29    1
    10    28    31    1
    11     1     2    1
    12     1     3    1
    13    11     3   ar
    14    11     9   ar
    15     3     4   ar
    16    10     9    1
    17     9     7   ar
    18    13    12    1
    19     4    12    1
    20     4     5   ar
    21     7     5   ar
    22     7     8    1
    23    19    18    1
    24    12    18    1
    25    12    14    1
    26     5     6    1
    27    18    21    1
    28    18    20    1
    29    15    14    1
    30    14    16    1
    31    14    17    1
