@<TRIPOS>MOLECULE
9
 27 26 0 0 0
SMALL
GASTEIGER

@<TRIPOS>ATOM
      1 SI         16.2537    2.5021    3.3473 Si      1  UNL1        0.0000
      2 C          16.5506    4.2174    2.5478 C.3     1  UNL1        0.0000
      3 C          16.9151    2.6774    5.1371 C.3     1  UNL1        0.0000
      4 C          17.2780    1.1453    2.4696 C.3     1  UNL1        0.0000
      5 SI         13.7400    1.8258    1.7668 Si      1  UNL1        0.0000
      6 C          13.9512   -0.0128    1.2508 C.3     1  UNL1        0.0000
      7 C          14.4117    2.8831    0.3244 C.3     1  UNL1        0.0000
      8 C          11.9246    2.4079    1.9955 C.3     1  UNL1        0.0000
      9 N          14.5552    2.0758    3.2984 N.3     1  UNL1        0.0000
     10 H          15.7025    4.8798    2.6883 H       1  UNL1        0.0000
     11 H          17.4186    4.6925    2.9920 H       1  UNL1        0.0000
     12 H          16.7345    4.1395    1.4839 H       1  UNL1        0.0000
     13 H          16.4905    3.5293    5.6598 H       1  UNL1        0.0000
     14 H          16.7437    1.7825    5.7285 H       1  UNL1        0.0000
     15 H          17.9887    2.8351    5.0946 H       1  UNL1        0.0000
     16 H          17.1089    0.1799    2.9401 H       1  UNL1        0.0000
     17 H          17.0076    1.0552    1.4227 H       1  UNL1        0.0000
     18 H          18.3407    1.3581    2.5222 H       1  UNL1        0.0000
     19 H          14.4576   -0.5723    2.0382 H       1  UNL1        0.0000
     20 H          12.9921   -0.4910    1.0753 H       1  UNL1        0.0000
     21 H          14.5365   -0.1079    0.3407 H       1  UNL1        0.0000
     22 H          15.4409    2.6410    0.0887 H       1  UNL1        0.0000
     23 H          13.8202    2.6996   -0.5661 H       1  UNL1        0.0000
     24 H          14.3588    3.9437    0.5381 H       1  UNL1        0.0000
     25 H          11.4073    1.8592    2.7796 H       1  UNL1        0.0000
     26 H          11.8842    3.4688    2.2320 H       1  UNL1        0.0000
     27 H          11.3704    2.2634    1.0736 H       1  UNL1        0.0000
@<TRIPOS>BOND
     1    23     7    1
     2    22     7    1
     3     7    24    1
     4     7     5    1
     5    21     6    1
     6    27     8    1
     7    20     6    1
     8     6     5    1
     9     6    19    1
    10    17     4    1
    11    12     2    1
    12     5     8    1
    13     5     9    1
    14     8    26    1
    15     8    25    1
    16     4    18    1
    17     4    16    1
    18     4     1    1
    19     2    10    1
    20     2    11    1
    21     2     1    1
    22     9     1    1
    23     1     3    1
    24    15     3    1
    25     3    13    1
    26     3    14    1
