@<TRIPOS>MOLECULE
1
 11 11 0 0 0
SMALL
GASTEIGER

@<TRIPOS>ATOM
      1 N           0.9063    4.1414   -0.6990 N.pl3   1  UNL1       -0.2487
      2 C          -0.0692    5.0490   -0.6554 C.3     1  UNL1        0.0840
      3 C          -1.2910    4.8473   -1.2707 C.2     1  UNL1       -0.0600
      4 C          -1.5132    3.6637   -1.9576 C.2     1  UNL1       -0.0626
      5 C          -0.4915    2.7283   -2.0042 C.2     1  UNL1       -0.0466
      6 C           0.7021    3.0056   -1.3630 C.2     1  UNL1        0.0121
      7 H           0.1420    5.9538   -0.1014 H       1  UNL1        0.0584
      8 H          -2.0526    5.6075   -1.2069 H       1  UNL1        0.0592
      9 H          -2.4572    3.4763   -2.4462 H       1  UNL1        0.0615
     10 H          -0.6108    1.7956   -2.5317 H       1  UNL1        0.0630
     11 H           1.5270    2.3067   -1.3895 H       1  UNL1        0.0797
@<TRIPOS>BOND
     1    10     5    1
     2     9     4    1
     3     5     4    1
     4     5     6    2
     5     4     3    2
     6    11     6    1
     7     6     1    1
     8     3     8    1
     9     3     2    1
    10     1     2    1
    11     2     7    1
