@<TRIPOS>MOLECULE
1
 11 11 0 0 0
SMALL
GASTEIGER

@<TRIPOS>ATOM
      1 N           4.5886    4.6671    1.4613 N.pl3   1  UNL1       -0.2487
      2 C           5.5088    3.7061    1.4167 C.3     1  UNL1        0.0840
      3 C           6.6737    3.7633    2.1600 C.2     1  UNL1       -0.0600
      4 C           6.8950    4.8585    2.9800 C.2     1  UNL1       -0.0626
      5 C           5.9365    5.8596    3.0148 C.2     1  UNL1       -0.0466
      6 C           4.7978    5.7276    2.2413 C.2     1  UNL1        0.0121
      7 H           5.3077    2.8767    0.7522 H       1  UNL1        0.0584
      8 H           7.3922    2.9623    2.0913 H       1  UNL1        0.0592
      9 H           7.7926    4.9313    3.5750 H       1  UNL1        0.0615
     10 H           6.0629    6.7330    3.6339 H       1  UNL1        0.0630
     11 H           4.0206    6.4800    2.2470 H       1  UNL1        0.0797
@<TRIPOS>BOND
     1     7     2    1
     2     2     1    1
     3     2     3    1
     4     1     6    1
     5     8     3    1
     6     3     4    2
     7     6    11    1
     8     6     5    2
     9     4     5    1
    10     4     9    1
    11     5    10    1
