@<TRIPOS>MOLECULE
1
 9 8 0 0 0
SMALL
GASTEIGER

@<TRIPOS>ATOM
      1 N          -2.8708    4.0473   13.5136 N.3     1  UNL1       -0.2469
      2 C          -4.1923    3.4607   13.4300 C.3     1  UNL1        0.0021
      3 H          -4.4283    2.9054   14.3532 H       1  UNL1        0.0405
      4 H          -4.2371    2.7591   12.5888 H       1  UNL1        0.0405
      5 H          -4.9769    4.2308   13.2894 H       1  UNL1        0.0405
      6 C          -2.7670    4.9163   14.6695 C.3     1  UNL1        0.0021
      7 H          -3.5230    5.7252   14.6424 H       1  UNL1        0.0405
      8 H          -1.7669    5.3651   14.6959 H       1  UNL1        0.0405
      9 H          -2.9218    4.3411   15.5983 H       1  UNL1        0.0405
@<TRIPOS>BOND
     1     4     2    1
     2     5     2    1
     3     2     1    1
     4     2     3    1
     5     1     6    1
     6     7     6    1
     7     6     8    1
     8     6     9    1
