@<TRIPOS>MOLECULE
5
 49 50 0 0 0
SMALL
GASTEIGER

@<TRIPOS>ATOM
      1 SI          9.1875   10.4350   13.6437 Si      1  UNL1        0.0000
      2 SI          7.0310    8.2323   13.1273 Si      1  UNL1        0.0000
      3 O           9.2523    8.5781   16.1555 O.3     1  UNL1        0.0000
      4 O           8.4503    8.6538   10.6845 O.3     1  UNL1        0.0000
      5 N           8.6095    8.8052   13.5776 N.3     1  UNL1        0.0000
      6 C           9.8509   10.7607   15.4122 C.ar    1  UNL1        0.0000
      7 C           9.8387    9.8074   16.4368 C.ar    1  UNL1        0.0000
      8 C          10.3925   10.0967   17.6784 C.ar    1  UNL1        0.0000
      9 H          10.4125    9.3595   18.4650 H       1  UNL1        0.0000
     10 C          10.9612   11.3372   17.9150 C.ar    1  UNL1        0.0000
     11 H          11.3955   11.5445   18.8814 H       1  UNL1        0.0000
     12 C          10.9758   12.2950   16.9197 C.ar    1  UNL1        0.0000
     13 H          11.4178   13.2630   17.1000 H       1  UNL1        0.0000
     14 C          10.4269   11.9946   15.6858 C.ar    1  UNL1        0.0000
     15 H          10.4427   12.7381   14.9031 H       1  UNL1        0.0000
     16 C           8.8863    7.7819   17.2768 C.3     1  UNL1        0.0000
     17 H           9.7620    7.3108   17.7361 H       1  UNL1        0.0000
     18 H           8.2265    7.0001   16.8958 H       1  UNL1        0.0000
     19 H           8.3525    8.3885   18.0155 H       1  UNL1        0.0000
     20 C           7.8623   11.7561   13.2767 C.3     1  UNL1        0.0000
     21 H           7.0206   11.6803   13.9558 H       1  UNL1        0.0000
     22 H           7.4798   11.6479   12.2686 H       1  UNL1        0.0000
     23 H           8.2757   12.7538   13.3723 H       1  UNL1        0.0000
     24 C          10.6714   10.6037   12.4344 C.3     1  UNL1        0.0000
     25 H          11.0923    9.6211   12.2080 H       1  UNL1        0.0000
     26 H          11.4644   11.2135   12.8590 H       1  UNL1        0.0000
     27 H          10.3698   11.0610   11.4969 H       1  UNL1        0.0000
     28 C           5.8504    8.4627   14.6197 C.3     1  UNL1        0.0000
     29 H           5.7259    9.5103   14.8736 H       1  UNL1        0.0000
     30 H           6.2460    7.9550   15.4954 H       1  UNL1        0.0000
     31 H           4.8689    8.0492   14.4143 H       1  UNL1        0.0000
     32 C           7.1682    6.3710   12.7070 C.3     1  UNL1        0.0000
     33 H           8.0480    6.1761   12.0944 H       1  UNL1        0.0000
     34 H           6.2984    6.0314   12.1522 H       1  UNL1        0.0000
     35 H           7.2402    5.7647   13.6089 H       1  UNL1        0.0000
     36 C           6.3982    9.1980   11.6263 C.ar    1  UNL1        0.0000
     37 C           7.2595    9.2900   10.5249 C.ar    1  UNL1        0.0000
     38 C           6.8777    9.9906    9.3879 C.ar    1  UNL1        0.0000
     39 H           7.5315   10.0695    8.5332 H       1  UNL1        0.0000
     40 C           5.6334   10.6004    9.3459 C.ar    1  UNL1        0.0000
     41 H           5.3414   11.1435    8.4590 H       1  UNL1        0.0000
     42 C           4.7724   10.5160   10.4236 C.ar    1  UNL1        0.0000
     43 H           3.8039   10.9911   10.3833 H       1  UNL1        0.0000
     44 C           5.1623    9.8162   11.5548 C.ar    1  UNL1        0.0000
     45 H           4.4935    9.7471   12.3986 H       1  UNL1        0.0000
     46 C           9.3468    8.6119    9.5970 C.3     1  UNL1        0.0000
     47 H           8.8893    8.1351    8.7241 H       1  UNL1        0.0000
     48 H          10.1901    8.0135    9.9375 H       1  UNL1        0.0000
     49 H           9.6939    9.6139    9.3246 H       1  UNL1        0.0000
@<TRIPOS>BOND
     1    41    40    1
     2    39    38    1
     3    47    46    1
     4    49    46    1
     5    40    38   ar
     6    40    42   ar
     7    38    37   ar
     8    46    48    1
     9    46     4    1
    10    43    42    1
    11    42    44   ar
    12    37     4    1
    13    37    36   ar
    14    27    24    1
    15    44    36   ar
    16    44    45    1
    17    36     2    1
    18    33    32    1
    19    34    32    1
    20    25    24    1
    21    22    20    1
    22    24    26    1
    23    24     1    1
    24    32     2    1
    25    32    35    1
    26     2     5    1
    27     2    28    1
    28    20    23    1
    29    20     1    1
    30    20    21    1
    31     5     1    1
    32     1     6    1
    33    31    28    1
    34    28    29    1
    35    28    30    1
    36    15    14    1
    37     6    14   ar
    38     6     7   ar
    39    14    12   ar
    40     3     7    1
    41     3    16    1
    42     7     8   ar
    43    18    16    1
    44    12    13    1
    45    12    10   ar
    46    16    17    1
    47    16    19    1
    48     8    10   ar
    49     8     9    1
    50    10    11    1
