@<TRIPOS>MOLECULE
3
 27 26 0 0 0
SMALL
GASTEIGER

@<TRIPOS>ATOM
      1 SI          4.9262    4.0159    0.3714 Si      1  UNL1        0.0000
      2 SI          6.2556    5.2921    2.7851 Si      1  UNL1        0.0000
      3 N           5.0007    4.3673    2.0552 N.3     1  UNL1        0.0000
      4 C           4.7032    5.5251   -0.7925 C.3     1  UNL1        0.0000
      5 H           3.7928    6.0788   -0.5921 H       1  UNL1        0.0000
      6 H           4.6757    5.2136   -1.8323 H       1  UNL1        0.0000
      7 H           5.5340    6.2127   -0.6797 H       1  UNL1        0.0000
      8 C           6.4352    3.0971   -0.3703 C.3     1  UNL1        0.0000
      9 H           7.3394    3.6770   -0.2278 H       1  UNL1        0.0000
     10 H           6.3086    2.9478   -1.4382 H       1  UNL1        0.0000
     11 H           6.5928    2.1257    0.0819 H       1  UNL1        0.0000
     12 C           3.3931    2.8765    0.1602 C.3     1  UNL1        0.0000
     13 H           3.2828    2.2177    1.0258 H       1  UNL1        0.0000
     14 H           3.4788    2.2505   -0.7226 H       1  UNL1        0.0000
     15 H           2.4843    3.4642    0.0534 H       1  UNL1        0.0000
     16 C           8.0223    4.5747    2.6003 C.3     1  UNL1        0.0000
     17 H           8.0317    3.5048    2.7663 H       1  UNL1        0.0000
     18 H           8.7073    5.0264    3.3106 H       1  UNL1        0.0000
     19 H           8.4132    4.7599    1.6060 H       1  UNL1        0.0000
     20 C           6.3969    7.1065    2.1847 C.3     1  UNL1        0.0000
     21 H           6.8987    7.1465    1.2235 H       1  UNL1        0.0000
     22 H           6.9712    7.7153    2.8763 H       1  UNL1        0.0000
     23 H           5.4232    7.5668    2.0644 H       1  UNL1        0.0000
     24 C           5.8383    5.2664    4.6603 C.3     1  UNL1        0.0000
     25 H           6.5947    5.7761    5.2509 H       1  UNL1        0.0000
     26 H           4.8825    5.7546    4.8637 H       1  UNL1        0.0000
     27 H           5.7982    4.2337    5.0149 H       1  UNL1        0.0000
@<TRIPOS>BOND
     1     6     4    1
     2    10     8    1
     3     4     7    1
     4     4     5    1
     5     4     1    1
     6    14    12    1
     7     8     9    1
     8     8    11    1
     9     8     1    1
    10    15    12    1
    11    12     1    1
    12    12    13    1
    13     1     3    1
    14    21    20    1
    15    19    16    1
    16     3     2    1
    17    23    20    1
    18    20     2    1
    19    20    22    1
    20    16    17    1
    21    16     2    1
    22    16    18    1
    23     2    24    1
    24    24    26    1
    25    24    27    1
    26    24    25    1
