@<TRIPOS>MOLECULE
3
 27 26 0 0 0
SMALL
GASTEIGER

@<TRIPOS>ATOM
      1 SI          1.2886    5.2698    5.9017 Si      1  UNL1        0.0000
      2 SI          2.1363    7.1230    3.7037 Si      1  UNL1        0.0000
      3 N           2.1230    5.5575    4.4251 N.3     1  UNL1        0.0000
      4 C           1.7335    6.4863    7.3120 C.3     1  UNL1        0.0000
      5 H           2.8064    6.5733    7.4479 H       1  UNL1        0.0000
      6 H           1.3038    6.1785    8.2598 H       1  UNL1        0.0000
      7 H           1.3520    7.4756    7.0851 H       1  UNL1        0.0000
      8 C          -0.6307    5.2903    5.7916 C.3     1  UNL1        0.0000
      9 H          -0.9994    6.2785    5.5429 H       1  UNL1        0.0000
     10 H          -1.0767    5.0051    6.7398 H       1  UNL1        0.0000
     11 H          -0.9993    4.6021    5.0379 H       1  UNL1        0.0000
     12 C           1.7362    3.4984    6.4610 C.3     1  UNL1        0.0000
     13 H           1.3143    2.7642    5.7786 H       1  UNL1        0.0000
     14 H           1.3620    3.2814    7.4569 H       1  UNL1        0.0000
     15 H           2.8147    3.3610    6.4718 H       1  UNL1        0.0000
     16 C           2.4570    6.8906    1.8303 C.3     1  UNL1        0.0000
     17 H           2.9003    5.9117    1.6385 H       1  UNL1        0.0000
     18 H           3.1428    7.6417    1.4538 H       1  UNL1        0.0000
     19 H           1.5431    6.9709    1.2495 H       1  UNL1        0.0000
     20 C           3.4470    8.3200    4.4303 C.3     1  UNL1        0.0000
     21 H           3.3187    8.4227    5.5029 H       1  UNL1        0.0000
     22 H           3.3494    9.3098    3.9941 H       1  UNL1        0.0000
     23 H           4.4614    7.9817    4.2505 H       1  UNL1        0.0000
     24 C           0.4889    8.0942    3.8453 C.3     1  UNL1        0.0000
     25 H          -0.3592    7.5378    3.4590 H       1  UNL1        0.0000
     26 H           0.5430    9.0285    3.2955 H       1  UNL1        0.0000
     27 H           0.2779    8.3375    4.8806 H       1  UNL1        0.0000
@<TRIPOS>BOND
     1    19    16    1
     2    18    16    1
     3    17    16    1
     4    16     2    1
     5    26    24    1
     6    25    24    1
     7     2    24    1
     8     2     3    1
     9     2    20    1
    10    24    27    1
    11    22    20    1
    12    23    20    1
    13     3     1    1
    14    20    21    1
    15    11     8    1
    16     9     8    1
    17    13    12    1
    18     8     1    1
    19     8    10    1
    20     1    12    1
    21     1     4    1
    22    12    15    1
    23    12    14    1
    24     7     4    1
    25     4     5    1
    26     4     6    1
