@<TRIPOS>MOLECULE
1
 19 19 0 0 0
SMALL
GASTEIGER

@<TRIPOS>ATOM
      1 N           0.6465    2.8219    2.4738 N.pl3   1  UNL1       -0.2486
      2 N           1.9083    4.6964   -1.0610 N.pl3   1  UNL1       -0.3362
      3 C           0.3476    2.3308    1.2658 C.3     1  UNL1        0.0857
      4 H          -0.1731    1.3846    1.2365 H       1  UNL1        0.0584
      5 C           0.7105    2.9191    0.0779 C.2     1  UNL1       -0.0389
      6 H           0.4395    2.4234   -0.8390 H       1  UNL1        0.0610
      7 C           1.4589    4.1081    0.0783 C.2     1  UNL1        0.0283
      8 C           1.7051    4.6552    1.3502 C.2     1  UNL1       -0.0256
      9 H           2.2293    5.5873    1.4682 H       1  UNL1        0.0649
     10 C           1.2909    3.9985    2.4810 C.2     1  UNL1        0.0139
     11 H           1.4972    4.4341    3.4461 H       1  UNL1        0.0798
     12 C           1.6162    4.1157   -2.3487 C.3     1  UNL1        0.0004
     13 H           2.1344    3.1608   -2.4944 H       1  UNL1        0.0428
     14 H           1.9283    4.8018   -3.1326 H       1  UNL1        0.0428
     15 H           0.5424    3.9505   -2.4559 H       1  UNL1        0.0428
     16 C           2.8922    5.7506   -0.9828 C.3     1  UNL1        0.0004
     17 H           2.4442    6.6807   -0.6197 H       1  UNL1        0.0428
     18 H           3.3063    5.9353   -1.9709 H       1  UNL1        0.0428
     19 H           3.7106    5.4709   -0.3137 H       1  UNL1        0.0428
@<TRIPOS>BOND
     1    14    12    1
     2    13    12    1
     3    15    12    1
     4    12     2    1
     5    18    16    1
     6     2    16    1
     7     2     7    1
     8    16    17    1
     9    16    19    1
    10     6     5    1
    11     5     7    2
    12     5     3    1
    13     7     8    1
    14     4     3    1
    15     3     1    1
    16     8     9    1
    17     8    10    2
    18     1    10    1
    19    10    11    1
