@<TRIPOS>MOLECULE
2
 42 41 0 0 0
SMALL
GASTEIGER

@<TRIPOS>ATOM
      1 SI         -2.1659    4.9353    0.3349 Si      1  UNL1        0.0000
      2 N          -1.2591    4.3416    1.7029 N.3     1  UNL1        0.0000
      3 H          -1.8822    3.7346    2.2317 H       1  UNL1        0.0000
      4 C          -2.8602    3.3276   -0.5715 C.3     1  UNL1        0.0000
      5 C          -3.9998    2.6821    0.2203 C.3     1  UNL1        0.0000
      6 C          -3.3851    3.5925   -1.9838 C.3     1  UNL1        0.0000
      7 C          -1.7545    2.2709   -0.6540 C.3     1  UNL1        0.0000
      8 C          -3.6298    6.0546    1.0501 C.3     1  UNL1        0.0000
      9 C          -4.2239    5.4138    2.3061 C.3     1  UNL1        0.0000
     10 C          -4.7671    6.2729    0.0503 C.3     1  UNL1        0.0000
     11 C          -3.1204    7.4304    1.4886 C.3     1  UNL1        0.0000
     12 C          -1.0364    5.9972   -0.8730 C.3     1  UNL1        0.0000
     13 C          -0.1829    6.9879   -0.0808 C.3     1  UNL1        0.0000
     14 C          -1.8414    6.8019   -1.8976 C.3     1  UNL1        0.0000
     15 C          -0.0708    5.1063   -1.6588 C.3     1  UNL1        0.0000
     16 H          -4.2922    1.7441   -0.2536 H       1  UNL1        0.0000
     17 H          -3.6884    2.4537    1.2356 H       1  UNL1        0.0000
     18 H          -4.8797    3.3171    0.2541 H       1  UNL1        0.0000
     19 H          -3.8061    2.6760   -2.3996 H       1  UNL1        0.0000
     20 H          -4.1662    4.3473   -1.9823 H       1  UNL1        0.0000
     21 H          -2.5918    3.9173   -2.6500 H       1  UNL1        0.0000
     22 H          -2.1439    1.3593   -1.1087 H       1  UNL1        0.0000
     23 H          -0.9143    2.6083   -1.2499 H       1  UNL1        0.0000
     24 H          -1.3950    2.0296    0.3441 H       1  UNL1        0.0000
     25 H          -5.0124    6.0506    2.7102 H       1  UNL1        0.0000
     26 H          -4.6584    4.4432    2.0990 H       1  UNL1        0.0000
     27 H          -3.4580    5.2982    3.0672 H       1  UNL1        0.0000
     28 H          -5.5122    6.9448    0.4788 H       1  UNL1        0.0000
     29 H          -4.4116    6.7158   -0.8747 H       1  UNL1        0.0000
     30 H          -5.2668    5.3388   -0.1883 H       1  UNL1        0.0000
     31 H          -3.9055    7.9630    2.0278 H       1  UNL1        0.0000
     32 H          -2.2674    7.3281    2.1543 H       1  UNL1        0.0000
     33 H          -2.8394    8.0454    0.6390 H       1  UNL1        0.0000
     34 H           0.5536    7.4607   -0.7319 H       1  UNL1        0.0000
     35 H          -0.7812    7.7743    0.3653 H       1  UNL1        0.0000
     36 H           0.3496    6.4688    0.7100 H       1  UNL1        0.0000
     37 H          -1.1594    7.3095   -2.5815 H       1  UNL1        0.0000
     38 H          -2.4921    6.1644   -2.4877 H       1  UNL1        0.0000
     39 H          -2.4488    7.5640   -1.4183 H       1  UNL1        0.0000
     40 H           0.6369    5.7218   -2.2166 H       1  UNL1        0.0000
     41 H           0.4946    4.4601   -0.9945 H       1  UNL1        0.0000
     42 H          -0.5996    4.4863   -2.3762 H       1  UNL1        0.0000
@<TRIPOS>BOND
     1    21     6    1
     2    37    14    1
     3    38    14    1
     4    19     6    1
     5    42    15    1
     6    40    15    1
     7     6    20    1
     8     6     4    1
     9    14    39    1
    10    14    12    1
    11    15    41    1
    12    15    12    1
    13    23     7    1
    14    22     7    1
    15    29    10    1
    16    12    13    1
    17    12     1    1
    18    34    13    1
    19     7     4    1
    20     7    24    1
    21     4     5    1
    22     4     1    1
    23    16     5    1
    24    30    10    1
    25    13    35    1
    26    13    36    1
    27    10    28    1
    28    10     8    1
    29     5    18    1
    30     5    17    1
    31     1     8    1
    32     1     2    1
    33    33    11    1
    34     8    11    1
    35     8     9    1
    36    11    31    1
    37    11    32    1
    38     2     3    1
    39    26     9    1
    40     9    25    1
    41     9    27    1
