@<TRIPOS>MOLECULE
24
 24 23 0 0 0
SMALL
GASTEIGER

@<TRIPOS>ATOM
      1 SI          2.5157    8.7605    6.9794 Si      1  UNL1        0.0000
      2 H           3.7440    7.8778    6.9340 H       1  UNL1        0.0000
      3 C           1.2081    7.9462    5.8358 C.3     1  UNL1        0.0000
      4 H           0.2058    8.3260    6.0051 H       1  UNL1        0.0000
      5 H           1.1807    6.8746    6.0070 H       1  UNL1        0.0000
      6 H           1.4477    8.1015    4.7886 H       1  UNL1        0.0000
      7 C           1.7961    8.6175    8.7521 C.3     1  UNL1        0.0000
      8 H           2.4838    9.0299    9.4857 H       1  UNL1        0.0000
      9 H           1.6219    7.5785    9.0136 H       1  UNL1        0.0000
     10 H           0.8483    9.1379    8.8572 H       1  UNL1        0.0000
     11 C           2.3409   11.5186    6.5449 C.3     1  UNL1        0.0000
     12 C           2.4978   12.1601    7.9376 C.3     1  UNL1        0.0000
     13 H           2.0808   11.4995    8.6927 H       1  UNL1        0.0000
     14 H           1.9804   13.1172    7.9837 H       1  UNL1        0.0000
     15 H           3.5581   12.3122    8.1650 H       1  UNL1        0.0000
     16 C           0.8482   11.2983    6.2644 C.3     1  UNL1        0.0000
     17 H           0.7226   10.7981    5.3090 H       1  UNL1        0.0000
     18 H           0.3235   12.2511    6.2373 H       1  UNL1        0.0000
     19 H           0.4065   10.6820    7.0398 H       1  UNL1        0.0000
     20 C           2.8669   12.5109    5.4856 C.3     1  UNL1        0.0000
     21 H           3.9236   12.7522    5.6769 H       1  UNL1        0.0000
     22 H           2.2949   13.4368    5.5138 H       1  UNL1        0.0000
     23 H           2.7702   12.0739    4.4921 H       1  UNL1        0.0000
     24 N           3.1115   10.2820    6.4630 N.3     1  UNL1        0.0000
@<TRIPOS>BOND
     1    23    20    1
     2     6     3    1
     3    17    16    1
     4    20    22    1
     5    20    21    1
     6    20    11    1
     7     3     4    1
     8     3     5    1
     9     3     1    1
    10    18    16    1
    11    16    11    1
    12    16    19    1
    13    24    11    1
    14    24     1    1
    15    11    12    1
    16     2     1    1
    17     1     7    1
    18    12    14    1
    19    12    15    1
    20    12    13    1
    21     7    10    1
    22     7     9    1
    23     7     8    1
