@<TRIPOS>MOLECULE
22
 24 23 0 0 0
SMALL
GASTEIGER

@<TRIPOS>ATOM
      1 C           3.5042    3.1188    9.0055 C.3     1  UNL1        0.0000
      2 C           4.6083    4.0335    9.5664 C.3     1  UNL1        0.0000
      3 H           5.5555    3.8046    9.0887 H       1  UNL1        0.0000
      4 H           4.7147    3.8965   10.6406 H       1  UNL1        0.0000
      5 H           4.3603    5.0742    9.3653 H       1  UNL1        0.0000
      6 C           3.8526    1.6536    9.3129 C.3     1  UNL1        0.0000
      7 H           3.1116    1.0006    8.8591 H       1  UNL1        0.0000
      8 H           3.8605    1.4840   10.3880 H       1  UNL1        0.0000
      9 H           4.8304    1.3996    8.9188 H       1  UNL1        0.0000
     10 C           2.1956    3.4275    9.7572 C.3     1  UNL1        0.0000
     11 H           1.8945    4.4664    9.5876 H       1  UNL1        0.0000
     12 H           2.3382    3.2855   10.8289 H       1  UNL1        0.0000
     13 H           1.4073    2.7464    9.4258 H       1  UNL1        0.0000
     14 C           3.9279    0.7974    5.9790 C.3     1  UNL1        0.0000
     15 H           4.3534    0.0809    6.6750 H       1  UNL1        0.0000
     16 H           4.2932    0.5404    4.9889 H       1  UNL1        0.0000
     17 H           2.8503    0.6559    5.9800 H       1  UNL1        0.0000
     18 C           6.2589    2.6212    6.7275 C.3     1  UNL1        0.0000
     19 H           6.6280    3.6275    6.9005 H       1  UNL1        0.0000
     20 H           6.7775    2.2314    5.8569 H       1  UNL1        0.0000
     21 H           6.5564    2.0118    7.5750 H       1  UNL1        0.0000
     22 N           3.3423    3.3671    7.5711 N.3     1  UNL1        0.0000
     23 SI          4.3641    2.6132    6.4273 Si      1  UNL1        0.0000
     24 H           4.2084    3.4053    5.1662 H       1  UNL1        0.0000
@<TRIPOS>BOND
     1    16    14    1
     2    24    23    1
     3    20    18    1
     4    14    17    1
     5    14    23    1
     6    14    15    1
     7    23    18    1
     8    23    22    1
     9    18    19    1
    10    18    21    1
    11    22     1    1
    12     7     6    1
    13     9     6    1
    14     1     6    1
    15     1     2    1
    16     1    10    1
    17     3     2    1
    18     6     8    1
    19     5     2    1
    20    13    10    1
    21     2     4    1
    22    11    10    1
    23    10    12    1
