@<TRIPOS>MOLECULE
24
 24 23 0 0 0
SMALL
GASTEIGER

@<TRIPOS>ATOM
      1 SI         10.0396    2.0860   16.5609 Si      1  UNL1        0.0000
      2 H          11.5396    1.9990   16.6448 H       1  UNL1        0.0000
      3 C           8.3236    4.2115   16.9816 C.3     1  UNL1        0.0000
      4 C           7.6662    3.7973   18.3095 C.3     1  UNL1        0.0000
      5 H           7.5819    2.7167   18.3617 H       1  UNL1        0.0000
      6 H           6.6705    4.2288   18.3964 H       1  UNL1        0.0000
      7 H           8.2757    4.1364   19.1460 H       1  UNL1        0.0000
      8 C           7.4633    3.6863   15.8221 C.3     1  UNL1        0.0000
      9 H           7.9545    3.8849   14.8737 H       1  UNL1        0.0000
     10 H           6.4890    4.1709   15.8242 H       1  UNL1        0.0000
     11 H           7.3139    2.6166   15.9180 H       1  UNL1        0.0000
     12 C           8.3073    5.7509   16.9073 C.3     1  UNL1        0.0000
     13 H           8.8187    6.1720   17.7811 H       1  UNL1        0.0000
     14 H           7.2802    6.1153   16.9084 H       1  UNL1        0.0000
     15 H           8.7904    6.0876   15.9887 H       1  UNL1        0.0000
     16 C           9.6359    1.4349   14.8013 C.3     1  UNL1        0.0000
     17 H           8.6061    1.1121   14.6899 H       1  UNL1        0.0000
     18 H          10.2656    0.5808   14.5714 H       1  UNL1        0.0000
     19 H           9.8274    2.1897   14.0451 H       1  UNL1        0.0000
     20 C           9.3756    0.7459   17.7599 C.3     1  UNL1        0.0000
     21 H           9.5334    1.0390   18.7940 H       1  UNL1        0.0000
     22 H           9.8875   -0.1990   17.6050 H       1  UNL1        0.0000
     23 H           8.3136    0.5597   17.6262 H       1  UNL1        0.0000
     24 N           9.7032    3.7285   16.9022 N.3     1  UNL1        0.0000
@<TRIPOS>BOND
     1    19    16    1
     2    18    16    1
     3    17    16    1
     4    16     1    1
     5     9     8    1
     6     8    10    1
     7     8    11    1
     8     8     3    1
     9    15    12    1
    10     1     2    1
    11     1    24    1
    12     1    20    1
    13    24     3    1
    14    12    14    1
    15    12     3    1
    16    12    13    1
    17     3     4    1
    18    22    20    1
    19    23    20    1
    20    20    21    1
    21     4     5    1
    22     4     6    1
    23     4     7    1
