@<TRIPOS>MOLECULE
24
 24 23 0 0 0
SMALL
GASTEIGER

@<TRIPOS>ATOM
      1 SI          7.2450    7.8797    6.0024 Si      1  UNL1        0.0000
      2 H           7.0313    8.1496    7.4776 H       1  UNL1        0.0000
      3 C           9.1331    7.6513    5.7440 C.3     1  UNL1        0.0000
      4 H           9.3840    7.3826    4.7220 H       1  UNL1        0.0000
      5 H           9.5109    6.8610    6.3849 H       1  UNL1        0.0000
      6 H           9.6786    8.5577    5.9892 H       1  UNL1        0.0000
      7 C           6.4638    6.1674    5.6384 C.3     1  UNL1        0.0000
      8 H           5.3797    6.2359    5.6200 H       1  UNL1        0.0000
      9 H           6.7320    5.4563    6.4136 H       1  UNL1        0.0000
     10 H           6.7859    5.7485    4.6901 H       1  UNL1        0.0000
     11 C           6.6287    9.5473    3.8392 C.3     1  UNL1        0.0000
     12 C           7.9087   10.3604    3.5642 C.3     1  UNL1        0.0000
     13 H           7.9081   11.2765    4.1566 H       1  UNL1        0.0000
     14 H           7.9810   10.6244    2.5110 H       1  UNL1        0.0000
     15 H           8.7799    9.7749    3.8413 H       1  UNL1        0.0000
     16 C           6.6463    8.2800    2.9727 C.3     1  UNL1        0.0000
     17 H           7.5308    7.6903    3.1871 H       1  UNL1        0.0000
     18 H           6.6511    8.5399    1.9161 H       1  UNL1        0.0000
     19 H           5.7666    7.6799    3.1865 H       1  UNL1        0.0000
     20 C           5.4134   10.3894    3.3944 C.3     1  UNL1        0.0000
     21 H           4.4888    9.8711    3.6620 H       1  UNL1        0.0000
     22 H           5.4289   10.5351    2.3146 H       1  UNL1        0.0000
     23 H           5.4344   11.3819    3.8674 H       1  UNL1        0.0000
     24 N           6.5277    9.2492    5.2647 N.3     1  UNL1        0.0000
@<TRIPOS>BOND
     1    18    16    1
     2    22    20    1
     3    14    12    1
     4    16    19    1
     5    16    17    1
     6    16    11    1
     7    20    21    1
     8    20    11    1
     9    20    23    1
    10    12    11    1
    11    12    15    1
    12    12    13    1
    13    11    24    1
    14    10     7    1
    15     4     3    1
    16    24     1    1
    17     8     7    1
    18     7     1    1
    19     7     9    1
    20     3     6    1
    21     3     1    1
    22     3     5    1
    23     1     2    1
