@<TRIPOS>MOLECULE
22
 24 23 0 0 0
SMALL
GASTEIGER

@<TRIPOS>ATOM
      1 C          -0.5646    6.5719    8.1285 C.3     1  UNL1        0.0000
      2 C          -1.4128    6.1319    6.9211 C.3     1  UNL1        0.0000
      3 H          -1.2123    6.7757    6.0649 H       1  UNL1        0.0000
      4 H          -2.4720    6.2065    7.1620 H       1  UNL1        0.0000
      5 H          -1.1927    5.0919    6.6609 H       1  UNL1        0.0000
      6 C          -0.9727    8.0127    8.4705 C.3     1  UNL1        0.0000
      7 H          -0.5043    8.3344    9.3942 H       1  UNL1        0.0000
      8 H          -2.0522    8.0757    8.5922 H       1  UNL1        0.0000
      9 H          -0.6712    8.6876    7.6751 H       1  UNL1        0.0000
     10 C          -0.9272    5.6691    9.3231 C.3     1  UNL1        0.0000
     11 H          -0.7142    4.6248    9.0831 H       1  UNL1        0.0000
     12 H          -1.9850    5.7600    9.5624 H       1  UNL1        0.0000
     13 H          -0.3468    5.9576   10.1957 H       1  UNL1        0.0000
     14 C           2.0436    9.2991    8.2991 C.3     1  UNL1        0.0000
     15 H           1.6810    9.5621    7.3110 H       1  UNL1        0.0000
     16 H           3.0588    9.6768    8.3830 H       1  UNL1        0.0000
     17 H           1.4413    9.8428    9.0202 H       1  UNL1        0.0000
     18 C           2.1329    7.3272   10.5412 C.3     1  UNL1        0.0000
     19 H           1.2495    7.7458   11.0165 H       1  UNL1        0.0000
     20 H           2.9851    7.9013   10.8930 H       1  UNL1        0.0000
     21 H           2.2527    6.3137   10.9115 H       1  UNL1        0.0000
     22 N           0.8615    6.4506    7.8065 N.3     1  UNL1        0.0000
     23 SI          2.0258    7.4041    8.6231 Si      1  UNL1        0.0000
     24 H           3.3332    6.8946    8.1013 H       1  UNL1        0.0000
@<TRIPOS>BOND
     1     3     2    1
     2     5     2    1
     3     2     4    1
     4     2     1    1
     5    15    14    1
     6     9     6    1
     7    22     1    1
     8    22    23    1
     9    24    23    1
    10     1     6    1
    11     1    10    1
    12    14    16    1
    13    14    23    1
    14    14    17    1
    15     6     8    1
    16     6     7    1
    17    23    18    1
    18    11    10    1
    19    10    12    1
    20    10    13    1
    21    18    20    1
    22    18    21    1
    23    18    19    1
