@<TRIPOS>MOLECULE
22
 24 23 0 0 0
SMALL
GASTEIGER

@<TRIPOS>ATOM
      1 C          15.7651    4.4917   12.5084 C.3     1  UNL1        0.0000
      2 C          17.0943    4.8242   13.2004 C.3     1  UNL1        0.0000
      3 H          17.9124    4.7746   12.4897 H       1  UNL1        0.0000
      4 H          17.2885    4.1182   14.0053 H       1  UNL1        0.0000
      5 H          17.0541    5.8283   13.6129 H       1  UNL1        0.0000
      6 C          15.8706    3.1072   11.8401 C.3     1  UNL1        0.0000
      7 H          14.9274    2.8787   11.3330 H       1  UNL1        0.0000
      8 H          16.0865    2.3329   12.5745 H       1  UNL1        0.0000
      9 H          16.6638    3.1182   11.0979 H       1  UNL1        0.0000
     10 C          14.6757    4.4176   13.5993 C.3     1  UNL1        0.0000
     11 H          14.6485    5.3461   14.1683 H       1  UNL1        0.0000
     12 H          14.8743    3.5975   14.2869 H       1  UNL1        0.0000
     13 H          13.6942    4.2538   13.1250 H       1  UNL1        0.0000
     14 C          17.5307    7.6718   11.3193 C.3     1  UNL1        0.0000
     15 H          16.9442    8.2347   12.0396 H       1  UNL1        0.0000
     16 H          17.8811    8.3724   10.5677 H       1  UNL1        0.0000
     17 H          18.4052    7.2886   11.8358 H       1  UNL1        0.0000
     18 C          17.7465    5.2374    9.4959 C.3     1  UNL1        0.0000
     19 H          18.4937    4.7649   10.1274 H       1  UNL1        0.0000
     20 H          18.2780    5.8563    8.7796 H       1  UNL1        0.0000
     21 H          17.2398    4.4537    8.9394 H       1  UNL1        0.0000
     22 N          15.3714    5.4913   11.5200 N.3     1  UNL1        0.0000
     23 SI         16.4904    6.2844   10.4962 Si      1  UNL1        0.0000
     24 H          15.5703    6.9457    9.4774 H       1  UNL1        0.0000
@<TRIPOS>BOND
     1    20    18    1
     2    21    18    1
     3    24    23    1
     4    18    19    1
     5    18    23    1
     6    23    14    1
     7    23    22    1
     8    16    14    1
     9     9     6    1
    10    14    17    1
    11    14    15    1
    12     7     6    1
    13    22     1    1
    14     6     1    1
    15     6     8    1
    16     3     2    1
    17     1     2    1
    18     1    10    1
    19    13    10    1
    20     2     5    1
    21     2     4    1
    22    10    11    1
    23    10    12    1
