@<TRIPOS>MOLECULE
22
 24 23 0 0 0
SMALL
GASTEIGER

@<TRIPOS>ATOM
      1 C          12.3179    8.2124   11.3963 C.3     1  UNL1        0.0000
      2 C          12.5433    7.5637   12.7791 C.3     1  UNL1        0.0000
      3 H          11.7600    6.8283   12.9831 H       1  UNL1        0.0000
      4 H          12.5142    8.3184   13.5638 H       1  UNL1        0.0000
      5 H          13.5327    7.0817   12.7913 H       1  UNL1        0.0000
      6 C          13.4089    9.2805   11.2016 C.3     1  UNL1        0.0000
      7 H          14.3813    8.7908   11.1418 H       1  UNL1        0.0000
      8 H          13.4112    9.9878   12.0288 H       1  UNL1        0.0000
      9 H          13.2388    9.8235   10.2785 H       1  UNL1        0.0000
     10 C          10.9337    8.8807   11.4031 C.3     1  UNL1        0.0000
     11 H          10.7758    9.4244   10.4776 H       1  UNL1        0.0000
     12 H          10.8475    9.5756   12.2358 H       1  UNL1        0.0000
     13 H          10.1599    8.1218   11.4934 H       1  UNL1        0.0000
     14 C          12.2750    9.1080    7.8820 C.3     1  UNL1        0.0000
     15 H          11.6947    9.9133    8.3225 H       1  UNL1        0.0000
     16 H          11.9977    9.0509    6.8338 H       1  UNL1        0.0000
     17 H          13.3223    9.3899    7.9253 H       1  UNL1        0.0000
     18 C          10.1327    7.0127    8.3584 C.3     1  UNL1        0.0000
     19 H           9.8663    6.0334    8.7464 H       1  UNL1        0.0000
     20 H           9.9563    6.9959    7.2873 H       1  UNL1        0.0000
     21 H           9.4444    7.7341    8.7892 H       1  UNL1        0.0000
     22 N          12.4192    7.1777   10.3717 N.3     1  UNL1        0.0000
     23 SI         11.9736    7.4200    8.7360 Si      1  UNL1        0.0000
     24 H          12.8232    6.4190    7.9782 H       1  UNL1        0.0000
@<TRIPOS>BOND
     1    16    14    1
     2    20    18    1
     3    14    17    1
     4    14    15    1
     5    14    23    1
     6    24    23    1
     7    18    23    1
     8    18    19    1
     9    18    21    1
    10    23    22    1
    11     9     6    1
    12    22     1    1
    13    11    10    1
    14     7     6    1
    15     6     1    1
    16     6     8    1
    17     1    10    1
    18     1     2    1
    19    10    13    1
    20    10    12    1
    21     2     5    1
    22     2     3    1
    23     2     4    1
