@<TRIPOS>MOLECULE
24
 24 23 0 0 0
SMALL
GASTEIGER

@<TRIPOS>ATOM
      1 SI          6.0064   10.7453    9.7873 Si      1  UNL1        0.0000
      2 H           4.9328    9.7160    9.5121 H       1  UNL1        0.0000
      3 C           7.5125    9.7896   10.4907 C.3     1  UNL1        0.0000
      4 H           7.9191    9.1058    9.7509 H       1  UNL1        0.0000
      5 H           7.2222    9.2015   11.3557 H       1  UNL1        0.0000
      6 H           8.3140   10.4510   10.8077 H       1  UNL1        0.0000
      7 C           5.3738   11.8394   11.2315 C.3     1  UNL1        0.0000
      8 H           6.1629   12.4196   11.6987 H       1  UNL1        0.0000
      9 H           4.9316   11.2167   12.0028 H       1  UNL1        0.0000
     10 H           4.6086   12.5326   10.8962 H       1  UNL1        0.0000
     11 C           7.2700   12.4624    7.9816 C.3     1  UNL1        0.0000
     12 C           8.5210   11.6808    7.5356 C.3     1  UNL1        0.0000
     13 H           8.8925   11.0838    8.3635 H       1  UNL1        0.0000
     14 H           9.3082   12.3589    7.2100 H       1  UNL1        0.0000
     15 H           8.2659   11.0027    6.7153 H       1  UNL1        0.0000
     16 C           7.6334   13.3448    9.1840 C.3     1  UNL1        0.0000
     17 H           6.7481   13.8613    9.5426 H       1  UNL1        0.0000
     18 H           8.3837   14.0802    8.9014 H       1  UNL1        0.0000
     19 H           8.0303   12.7373    9.9898 H       1  UNL1        0.0000
     20 C           6.8425   13.4042    6.8343 C.3     1  UNL1        0.0000
     21 H           6.6370   12.8281    5.9175 H       1  UNL1        0.0000
     22 H           7.6329   14.1204    6.6151 H       1  UNL1        0.0000
     23 H           5.9473   13.9555    7.1243 H       1  UNL1        0.0000
     24 N           6.1740   11.5453    8.2784 N.3     1  UNL1        0.0000
@<TRIPOS>BOND
     1    21    20    1
     2    22    20    1
     3    15    12    1
     4    20    23    1
     5    20    11    1
     6    14    12    1
     7    12    11    1
     8    12    13    1
     9    11    24    1
    10    11    16    1
    11    24     1    1
    12    18    16    1
    13    16    17    1
    14    16    19    1
    15     2     1    1
    16     4     3    1
    17     1     3    1
    18     1     7    1
    19     3     6    1
    20     3     5    1
    21    10     7    1
    22     7     8    1
    23     7     9    1
