@<TRIPOS>MOLECULE
22
 24 23 0 0 0
SMALL
GASTEIGER

@<TRIPOS>ATOM
      1 C          11.3948    3.1094   10.6579 C.3     1  UNL1        0.0000
      2 C          10.7419    4.1674   11.5725 C.3     1  UNL1        0.0000
      3 H          11.4115    4.4105   12.4089 H       1  UNL1        0.0000
      4 H           9.8057    3.7944   11.9858 H       1  UNL1        0.0000
      5 H          10.5377    5.0743   10.9957 H       1  UNL1        0.0000
      6 C          10.3563    2.7008    9.6032 C.3     1  UNL1        0.0000
      7 H          10.1541    3.5406    8.9440 H       1  UNL1        0.0000
      8 H           9.4282    2.3902   10.0793 H       1  UNL1        0.0000
      9 H          10.7326    1.8757    9.0072 H       1  UNL1        0.0000
     10 C          11.7478    1.8765   11.5124 C.3     1  UNL1        0.0000
     11 H          12.1579    1.0965   10.8787 H       1  UNL1        0.0000
     12 H          10.8656    1.4917   12.0198 H       1  UNL1        0.0000
     13 H          12.4975    2.1412   12.2576 H       1  UNL1        0.0000
     14 C          12.3812    3.3215    6.9654 C.3     1  UNL1        0.0000
     15 H          11.6400    2.5497    6.7811 H       1  UNL1        0.0000
     16 H          13.0812    3.3000    6.1355 H       1  UNL1        0.0000
     17 H          11.8745    4.2816    6.9390 H       1  UNL1        0.0000
     18 C          13.8552    1.2412    8.6089 C.3     1  UNL1        0.0000
     19 H          14.4272    0.9810    9.4946 H       1  UNL1        0.0000
     20 H          14.4826    1.0408    7.7459 H       1  UNL1        0.0000
     21 H          13.0081    0.5631    8.5523 H       1  UNL1        0.0000
     22 N          12.6043    3.6757   10.0685 N.3     1  UNL1        0.0000
     23 SI         13.3104    3.0835    8.6256 Si      1  UNL1        0.0000
     24 H          14.5730    3.9470    8.5587 H       1  UNL1        0.0000
@<TRIPOS>BOND
     1    16    14    1
     2    15    14    1
     3    17    14    1
     4    14    23    1
     5    20    18    1
     6    21    18    1
     7    24    23    1
     8    18    23    1
     9    18    19    1
    10    23    22    1
    11     7     6    1
    12     9     6    1
    13     6     8    1
    14     6     1    1
    15    22     1    1
    16     1    10    1
    17     1     2    1
    18    11    10    1
    19     5     2    1
    20    10    12    1
    21    10    13    1
    22     2     4    1
    23     2     3    1
