@<TRIPOS>MOLECULE
22
 24 23 0 0 0
SMALL
GASTEIGER

@<TRIPOS>ATOM
      1 C           0.0609    2.9226    4.4214 C.3     1  UNL1        0.0000
      2 C           1.4719    3.0102    3.8107 C.3     1  UNL1        0.0000
      3 H           1.9857    3.9183    4.1419 H       1  UNL1        0.0000
      4 H           1.4161    3.0172    2.7225 H       1  UNL1        0.0000
      5 H           2.0604    2.1505    4.1234 H       1  UNL1        0.0000
      6 C          -0.5672    1.6267    3.8909 C.3     1  UNL1        0.0000
      7 H          -0.0033    0.7701    4.2455 H       1  UNL1        0.0000
      8 H          -0.5539    1.6257    2.8024 H       1  UNL1        0.0000
      9 H          -1.5956    1.5338    4.2210 H       1  UNL1        0.0000
     10 C          -0.7780    4.1097    3.9053 C.3     1  UNL1        0.0000
     11 H          -1.7956    4.0271    4.2795 H       1  UNL1        0.0000
     12 H          -0.8068    4.1209    2.8171 H       1  UNL1        0.0000
     13 H          -0.3527    5.0519    4.2602 H       1  UNL1        0.0000
     14 C          -0.3676    0.1067    6.9626 C.3     1  UNL1        0.0000
     15 H          -0.8151   -0.4580    6.1506 H       1  UNL1        0.0000
     16 H          -0.7221   -0.3297    7.8916 H       1  UNL1        0.0000
     17 H           0.7067   -0.0480    6.9209 H       1  UNL1        0.0000
     18 C          -2.7073    2.0523    6.7049 C.3     1  UNL1        0.0000
     19 H          -3.0490    3.0669    6.5217 H       1  UNL1        0.0000
     20 H          -3.1899    1.7080    7.6144 H       1  UNL1        0.0000
     21 H          -3.0764    1.4302    5.8950 H       1  UNL1        0.0000
     22 N           0.1385    2.9836    5.8811 N.3     1  UNL1        0.0000
     23 SI         -0.7967    1.9726    6.8906 Si      1  UNL1        0.0000
     24 H          -0.5293    2.4992    8.2749 H       1  UNL1        0.0000
@<TRIPOS>BOND
     1     4     2    1
     2     8     6    1
     3    12    10    1
     4     2     5    1
     5     2     3    1
     6     2     1    1
     7     6     9    1
     8     6     7    1
     9     6     1    1
    10    10    13    1
    11    10    11    1
    12    10     1    1
    13     1    22    1
    14    22    23    1
    15    21    18    1
    16    15    14    1
    17    19    18    1
    18    18    23    1
    19    18    20    1
    20    23    14    1
    21    23    24    1
    22    17    14    1
    23    14    16    1
