@<TRIPOS>MOLECULE
24
 24 23 0 0 0
SMALL
GASTEIGER

@<TRIPOS>ATOM
      1 SI         10.5032    4.6899   21.1627 Si      1  UNL1        0.0000
      2 H           9.6121    5.7068   20.4938 H       1  UNL1        0.0000
      3 C          12.8620    3.5277   20.3027 C.3     1  UNL1        0.0000
      4 C          13.4635    2.9096   19.0253 C.3     1  UNL1        0.0000
      5 H          12.7536    2.2075   18.5819 H       1  UNL1        0.0000
      6 H          14.3763    2.3648   19.2675 H       1  UNL1        0.0000
      7 H          13.7170    3.6955   18.3016 H       1  UNL1        0.0000
      8 C          12.5539    2.3678   21.2626 C.3     1  UNL1        0.0000
      9 H          12.2540    2.7474   22.2337 H       1  UNL1        0.0000
     10 H          13.4331    1.7401   21.3940 H       1  UNL1        0.0000
     11 H          11.7463    1.7629   20.8597 H       1  UNL1        0.0000
     12 C          13.9283    4.4355   20.9429 C.3     1  UNL1        0.0000
     13 H          14.1660    5.2577   20.2708 H       1  UNL1        0.0000
     14 H          14.8373    3.8737   21.1480 H       1  UNL1        0.0000
     15 H          13.5544    4.8464   21.8751 H       1  UNL1        0.0000
     16 C           9.3468    3.2787   21.7620 C.3     1  UNL1        0.0000
     17 H           9.1387    2.5733   20.9632 H       1  UNL1        0.0000
     18 H           8.3946    3.6794   22.0968 H       1  UNL1        0.0000
     19 H           9.7691    2.7191   22.5909 H       1  UNL1        0.0000
     20 C          11.0910    5.5372   22.7815 C.3     1  UNL1        0.0000
     21 H          11.6338    4.8547   23.4286 H       1  UNL1        0.0000
     22 H          10.2401    5.9040   23.3474 H       1  UNL1        0.0000
     23 H          11.7385    6.3861   22.5820 H       1  UNL1        0.0000
     24 N          11.6655    4.3048   19.9729 N.3     1  UNL1        0.0000
@<TRIPOS>BOND
     1     7     4    1
     2     5     4    1
     3     4     6    1
     4     4     3    1
     5    24     3    1
     6    24     1    1
     7    13    12    1
     8     3    12    1
     9     3     8    1
    10     2     1    1
    11    11     8    1
    12    12    14    1
    13    12    15    1
    14    17    16    1
    15     1    16    1
    16     1    20    1
    17     8    10    1
    18     8     9    1
    19    16    18    1
    20    16    19    1
    21    23    20    1
    22    20    22    1
    23    20    21    1
