@<TRIPOS>MOLECULE
24
 24 23 0 0 0
SMALL
GASTEIGER

@<TRIPOS>ATOM
      1 SI         14.1811    6.7805   17.3641 Si      1  UNL1        0.0000
      2 H          13.7231    6.9475   18.7812 H       1  UNL1        0.0000
      3 C          12.9548    5.5766   15.1878 C.3     1  UNL1        0.0000
      4 C          11.5405    5.5621   14.5759 C.3     1  UNL1        0.0000
      5 H          10.8996    4.8522   15.1091 H       1  UNL1        0.0000
      6 H          11.5873    5.2624   13.5302 H       1  UNL1        0.0000
      7 H          11.1053    6.5605   14.6282 H       1  UNL1        0.0000
      8 C          13.5498    4.1593   15.0864 C.3     1  UNL1        0.0000
      9 H          14.5587    4.1546   15.4929 H       1  UNL1        0.0000
     10 H          13.5895    3.8316   14.0495 H       1  UNL1        0.0000
     11 H          12.9354    3.4537   15.6515 H       1  UNL1        0.0000
     12 C          13.8118    6.5199   14.3307 C.3     1  UNL1        0.0000
     13 H          13.4501    7.5400   14.4185 H       1  UNL1        0.0000
     14 H          13.7639    6.2213   13.2854 H       1  UNL1        0.0000
     15 H          14.8484    6.4897   14.6484 H       1  UNL1        0.0000
     16 C          14.6447    8.5547   16.7808 C.3     1  UNL1        0.0000
     17 H          15.3501    8.5458   15.9564 H       1  UNL1        0.0000
     18 H          15.1129    9.1049   17.5923 H       1  UNL1        0.0000
     19 H          13.7788    9.1264   16.4598 H       1  UNL1        0.0000
     20 C          15.8804    5.8894   17.4495 C.3     1  UNL1        0.0000
     21 H          15.7920    4.8837   17.8498 H       1  UNL1        0.0000
     22 H          16.5671    6.4337   18.0907 H       1  UNL1        0.0000
     23 H          16.3498    5.8112   16.4728 H       1  UNL1        0.0000
     24 N          12.8793    5.9928   16.5901 N.3     1  UNL1        0.0000
@<TRIPOS>BOND
     1    14    12    1
     2     6     4    1
     3    10     8    1
     4    12    13    1
     5    12    15    1
     6    12     3    1
     7     4     7    1
     8     4     5    1
     9     4     3    1
    10     8     3    1
    11     8     9    1
    12     8    11    1
    13     3    24    1
    14    17    16    1
    15    19    16    1
    16    23    20    1
    17    24     1    1
    18    16     1    1
    19    16    18    1
    20     1    20    1
    21     1     2    1
    22    20    21    1
    23    20    22    1
