@<TRIPOS>MOLECULE
1
 20 21 0 0 0
SMALL
GASTEIGER

@<TRIPOS>ATOM
      1 N           2.1213   -0.5503   10.4927 N.3     1  UNL1       -0.2987
      2 N           1.9530   -3.0947   10.6057 N.3     1  UNL1       -0.2987
      3 C           2.1531   -1.1306    9.1395 C.3     1  UNL1        0.0118
      4 H           3.0622   -0.7841    8.6395 H       1  UNL1        0.0439
      5 H           1.2895   -0.7496    8.5874 H       1  UNL1        0.0439
      6 C           2.1199   -2.6733    9.2252 C.3     1  UNL1        0.0118
      7 H           1.2912   -3.0815    8.6423 H       1  UNL1        0.0439
      8 H           3.0473   -3.1105    8.8490 H       1  UNL1        0.0439
      9 C           0.8642   -0.9564   11.1438 C.3     1  UNL1        0.0118
     10 H           0.0326   -0.4958   10.6027 H       1  UNL1        0.0439
     11 H           0.8704   -0.5646   12.1648 H       1  UNL1        0.0439
     12 C           0.7423   -2.4970   11.1426 C.3     1  UNL1        0.0118
     13 H           0.5934   -2.8802   12.1547 H       1  UNL1        0.0439
     14 H          -0.0978   -2.8269   10.5278 H       1  UNL1        0.0439
     15 C           3.2454   -1.1084   11.2634 C.3     1  UNL1        0.0118
     16 H           3.2529   -0.6365   12.2501 H       1  UNL1        0.0439
     17 H           4.1728   -0.8441   10.7476 H       1  UNL1        0.0439
     18 C           3.0937   -2.6417   11.3834 C.3     1  UNL1        0.0118
     19 H           3.9837   -3.1550   11.0126 H       1  UNL1        0.0439
     20 H           2.9354   -2.9432   12.4210 H       1  UNL1        0.0439
@<TRIPOS>BOND
     1     5     3    1
     2     4     3    1
     3     7     6    1
     4     8     6    1
     5     3     6    1
     6     3     1    1
     7     6     2    1
     8     1     9    1
     9     1    15    1
    10    14    12    1
    11    10     9    1
    12     2    12    1
    13     2    18    1
    14    17    15    1
    15    19    18    1
    16    12     9    1
    17    12    13    1
    18     9    11    1
    19    15    18    1
    20    15    16    1
    21    18    20    1
