@<TRIPOS>MOLECULE
1
 11 11 0 0 0
SMALL
GASTEIGER

@<TRIPOS>ATOM
      1 N           4.0523    4.4423    8.4147 N.pl3   1  UNL1       -0.2487
      2 C           3.6041    3.1965    6.4203 C.2     1  UNL1       -0.0466
      3 H           3.1713    2.3156    5.9729 H       1  UNL1        0.0630
      4 C           4.6499    5.3719    7.6578 C.3     1  UNL1        0.0840
      5 H           5.0418    6.2313    8.1925 H       1  UNL1        0.0584
      6 C           4.7566    5.2731    6.2841 C.2     1  UNL1       -0.0600
      7 H           5.2457    6.0538    5.7231 H       1  UNL1        0.0592
      8 C           3.5326    3.3783    7.7903 C.2     1  UNL1        0.0121
      9 H           3.0363    2.6453    8.4155 H       1  UNL1        0.0797
     10 C           4.2290    4.1592    5.6423 C.2     1  UNL1       -0.0626
     11 H           4.2999    4.0505    4.5710 H       1  UNL1        0.0615
@<TRIPOS>BOND
     1    11    10    1
     2    10     6    2
     3    10     2    1
     4     7     6    1
     5     3     2    1
     6     6     4    1
     7     2     8    2
     8     4     5    1
     9     4     1    1
    10     8     1    1
    11     8     9    1
