@<TRIPOS>MOLECULE
1
 9 8 0 0 0
SMALL
GASTEIGER

@<TRIPOS>ATOM
      1 N          13.7020   -2.0911    3.3922 N.3     1  UNL1       -0.2469
      2 C          14.2366   -3.2905    3.9904 C.3     1  UNL1        0.0021
      3 H          14.6384   -3.9743    3.2264 H       1  UNL1        0.0405
      4 H          13.4403   -3.7969    4.5323 H       1  UNL1        0.0405
      5 H          15.0525   -3.0592    4.6906 H       1  UNL1        0.0405
      6 C          14.7249   -1.3899    2.6573 C.3     1  UNL1        0.0021
      7 H          15.5887   -1.1591    3.2997 H       1  UNL1        0.0405
      8 H          14.3364   -0.4486    2.2680 H       1  UNL1        0.0405
      9 H          15.1012   -1.9904    1.8118 H       1  UNL1        0.0405
@<TRIPOS>BOND
     1     9     6    1
     2     8     6    1
     3     6     7    1
     4     6     1    1
     5     3     2    1
     6     1     2    1
     7     2     4    1
     8     2     5    1
