@<TRIPOS>MOLECULE
1
 9 8 0 0 0
SMALL
GASTEIGER

@<TRIPOS>ATOM
      1 N          10.9840   -1.5628    1.3760 N.3     1  UNL1       -0.2469
      2 C          11.8098   -1.2205    0.2445 C.3     1  UNL1        0.0021
      3 H          12.2060   -2.1207   -0.2563 H       1  UNL1        0.0405
      4 H          12.6503   -0.6017    0.5600 H       1  UNL1        0.0405
      5 H          11.2391   -0.6563   -0.5083 H       1  UNL1        0.0405
      6 C           9.8062   -2.2774    0.9460 C.3     1  UNL1        0.0021
      7 H           9.2131   -1.6754    0.2421 H       1  UNL1        0.0405
      8 H           9.1922   -2.5030    1.8164 H       1  UNL1        0.0405
      9 H          10.0669   -3.2201    0.4387 H       1  UNL1        0.0405
@<TRIPOS>BOND
     1     5     2    1
     2     3     2    1
     3     7     6    1
     4     2     4    1
     5     2     1    1
     6     9     6    1
     7     6     1    1
     8     6     8    1
