@<TRIPOS>MOLECULE
5
 9 9 0 0 0
SMALL
GASTEIGER

@<TRIPOS>ATOM
      1 C           1.2007    3.3401   -0.0220 C.ar    1  UNL1        0.0276
      2 C           1.0115    4.5393    0.6140 C.ar    1  UNL1       -0.0422
      3 C           0.1860    4.2764    1.7264 C.ar    1  UNL1       -0.0422
      4 C          -0.0750    2.9302    1.7043 C.ar    1  UNL1        0.0276
      5 N           0.5497    2.3370    0.6440 N.ar    1  UNL1       -0.2633
      6 H           1.7771    3.1431   -0.9143 H       1  UNL1        0.0829
      7 H           1.4122    5.4912    0.3217 H       1  UNL1        0.0633
      8 H          -0.1695    4.9863    2.4495 H       1  UNL1        0.0633
      9 H          -0.6911    2.3714    2.3871 H       1  UNL1        0.0829
@<TRIPOS>BOND
     1     6     1    1
     2     1     2   ar
     3     1     5   ar
     4     7     2    1
     5     2     3   ar
     6     5     4   ar
     7     4     3   ar
     8     4     9    1
     9     3     8    1
