@<TRIPOS>MOLECULE
1
 9 9 0 0 0
SMALL
GASTEIGER

@<TRIPOS>ATOM
      1 N           2.3369    0.5496   -0.6440 N.ar    1  UNL1       -0.2633
      2 C           3.3401    1.2005    0.0219 C.ar    1  UNL1        0.0276
      3 C           4.5392    1.0112   -0.6141 C.ar    1  UNL1       -0.0422
      4 C           4.2763    0.1858   -1.7265 C.ar    1  UNL1       -0.0422
      5 C           2.9301   -0.0751   -1.7043 C.ar    1  UNL1        0.0276
      6 H           2.3712   -0.6912   -2.3872 H       1  UNL1        0.0829
      7 H           4.9861   -0.1698   -2.4495 H       1  UNL1        0.0633
      8 H           5.4912    1.4119   -0.3217 H       1  UNL1        0.0633
      9 H           3.1431    1.7769    0.9142 H       1  UNL1        0.0829
@<TRIPOS>BOND
     1     7     4    1
     2     6     5    1
     3     4     5   ar
     4     4     3   ar
     5     5     1   ar
     6     1     2   ar
     7     3     8    1
     8     3     2   ar
     9     2     9    1
