@<TRIPOS>MOLECULE
2
 43 43 0 0 0
SMALL
GASTEIGER

@<TRIPOS>ATOM
      1 SI         -4.5002   11.1432    3.2455 Si      1  UNL1        0.0000
      2 N          -3.2123   10.1501    3.7883 N.pl3   1  UNL1        0.0000
      3 C          -1.9826   10.7053    4.1547 C.ar    1  UNL1        0.0000
      4 C          -0.9571   10.9141    3.2065 C.ar    1  UNL1        0.0000
      5 C           0.2580   11.4469    3.6085 C.ar    1  UNL1        0.0000
      6 H           1.0394   11.6025    2.8782 H       1  UNL1        0.0000
      7 C           0.4919   11.7899    4.9271 C.ar    1  UNL1        0.0000
      8 H           1.4423   12.2088    5.2233 H       1  UNL1        0.0000
      9 C          -0.5078   11.5909    5.8620 C.ar    1  UNL1        0.0000
     10 H          -0.3228   11.8561    6.8926 H       1  UNL1        0.0000
     11 C          -1.7375   11.0665    5.4998 C.ar    1  UNL1        0.0000
     12 C          -1.1602   10.5302    1.7589 C.3     1  UNL1        0.0000
     13 H          -2.1915   10.1740    1.6509 H       1  UNL1        0.0000
     14 C          -0.9561   11.7308    0.8338 C.3     1  UNL1        0.0000
     15 H          -1.5573   12.5726    1.1689 H       1  UNL1        0.0000
     16 H          -1.2467   11.4775   -0.1839 H       1  UNL1        0.0000
     17 H           0.0863   12.0421    0.8223 H       1  UNL1        0.0000
     18 C          -0.2223    9.3851    1.3646 C.3     1  UNL1        0.0000
     19 H           0.8202    9.6804    1.4708 H       1  UNL1        0.0000
     20 H          -0.3934    9.0983    0.3286 H       1  UNL1        0.0000
     21 H          -0.4086    8.5208    2.0013 H       1  UNL1        0.0000
     22 C          -2.7938   10.8223    6.5531 C.3     1  UNL1        0.0000
     23 H          -3.7393   10.6265    6.0329 H       1  UNL1        0.0000
     24 C          -2.9950   12.0231    7.4776 C.3     1  UNL1        0.0000
     25 H          -2.1370   12.1700    8.1294 H       1  UNL1        0.0000
     26 H          -3.8700   11.8663    8.1056 H       1  UNL1        0.0000
     27 H          -3.1442   12.9294    6.8966 H       1  UNL1        0.0000
     28 C          -2.4279    9.5746    7.3654 C.3     1  UNL1        0.0000
     29 H          -2.3896    8.6989    6.7055 H       1  UNL1        0.0000
     30 H          -3.1733    9.3935    8.1371 H       1  UNL1        0.0000
     31 H          -1.4581    9.7028    7.8444 H       1  UNL1        0.0000
     32 C          -6.0900   10.1725    3.6853 C.3     1  UNL1        0.0000
     33 H          -6.0292    9.1511    3.3027 H       1  UNL1        0.0000
     34 H          -6.9600   10.6384    3.2371 H       1  UNL1        0.0000
     35 H          -6.2633   10.1218    4.7557 H       1  UNL1        0.0000
     36 C          -4.6309   11.4523    1.3510 C.3     1  UNL1        0.0000
     37 H          -3.8672   12.1309    0.9868 H       1  UNL1        0.0000
     38 H          -5.5944   11.8912    1.1095 H       1  UNL1        0.0000
     39 H          -4.5491   10.5274    0.7858 H       1  UNL1        0.0000
     40 C          -4.5098   12.8734    4.0599 C.3     1  UNL1        0.0000
     41 H          -4.9328   12.8486    5.0585 H       1  UNL1        0.0000
     42 H          -5.0836   13.5856    3.4765 H       1  UNL1        0.0000
     43 H          -3.4956   13.2527    4.1412 H       1  UNL1        0.0000
@<TRIPOS>BOND
     1    16    14    1
     2    20    18    1
     3    39    36    1
     4    17    14    1
     5    14    15    1
     6    14    12    1
     7    37    36    1
     8    38    36    1
     9    36     1    1
    10    18    19    1
    11    18    12    1
    12    18    21    1
    13    13    12    1
    14    12     4    1
    15     6     5    1
    16     4     5   ar
    17     4     3   ar
    18    34    32    1
    19     1    32    1
    20     1     2    1
    21     1    40    1
    22    33    32    1
    23    42    40    1
    24     5     7   ar
    25    32    35    1
    26     2     3    1
    27    40    43    1
    28    40    41    1
    29     3    11   ar
    30     7     8    1
    31     7     9   ar
    32    11     9   ar
    33    11    22    1
    34     9    10    1
    35    23    22    1
    36    22    28    1
    37    22    24    1
    38    29    28    1
    39    27    24    1
    40    28    31    1
    41    28    30    1
    42    24    26    1
    43    24    25    1
