@<TRIPOS>MOLECULE
2
 43 43 0 0 0
SMALL
GASTEIGER

@<TRIPOS>ATOM
      1 SI         -4.6165   11.3006    3.2367 Si      1  UNL1        0.0000
      2 N          -3.3837   10.2634    3.8100 N.pl3   1  UNL1        0.0000
      3 C          -2.1025   10.6919    4.1499 C.ar    1  UNL1        0.0000
      4 C          -1.0799   10.7993    3.1828 C.ar    1  UNL1        0.0000
      5 C           0.1903   11.2009    3.5632 C.ar    1  UNL1        0.0000
      6 H           0.9678   11.2863    2.8167 H       1  UNL1        0.0000
      7 C           0.4850   11.5052    4.8794 C.ar    1  UNL1        0.0000
      8 H           1.4798   11.8196    5.1593 H       1  UNL1        0.0000
      9 C          -0.5113   11.4047    5.8335 C.ar    1  UNL1        0.0000
     10 H          -0.2804   11.6415    6.8622 H       1  UNL1        0.0000
     11 C          -1.7958   11.0116    5.4927 C.ar    1  UNL1        0.0000
     12 C          -1.3582   10.4637    1.7367 C.3     1  UNL1        0.0000
     13 H          -2.4165   10.1994    1.6550 H       1  UNL1        0.0000
     14 C          -1.0871   11.6659    0.8311 C.3     1  UNL1        0.0000
     15 H          -1.6314   12.5366    1.1893 H       1  UNL1        0.0000
     16 H          -1.4043   11.4506   -0.1875 H       1  UNL1        0.0000
     17 H          -0.0273   11.9112    0.8130 H       1  UNL1        0.0000
     18 C          -0.5345    9.2529    1.2903 C.3     1  UNL1        0.0000
     19 H          -0.7889    8.9807    0.2674 H       1  UNL1        0.0000
     20 H          -0.7466    8.4061    1.9409 H       1  UNL1        0.0000
     21 H           0.5317    9.4692    1.3298 H       1  UNL1        0.0000
     22 C          -2.8549   10.8849    6.5641 C.3     1  UNL1        0.0000
     23 H          -3.8144   10.7181    6.0605 H       1  UNL1        0.0000
     24 C          -2.9747   12.1545    7.4080 C.3     1  UNL1        0.0000
     25 H          -3.8335   12.0820    8.0725 H       1  UNL1        0.0000
     26 H          -3.1044   13.0225    6.7670 H       1  UNL1        0.0000
     27 H          -2.0881   12.3087    8.0187 H       1  UNL1        0.0000
     28 C          -2.5571    9.6739    7.4562 C.3     1  UNL1        0.0000
     29 H          -2.5339    8.7583    6.8580 H       1  UNL1        0.0000
     30 H          -3.3246    9.5672    8.2207 H       1  UNL1        0.0000
     31 H          -1.5946    9.7920    7.9520 H       1  UNL1        0.0000
     32 C          -6.2630   10.4801    3.7870 C.3     1  UNL1        0.0000
     33 H          -6.3721    9.4881    3.3413 H       1  UNL1        0.0000
     34 H          -7.1105   11.0749    3.4628 H       1  UNL1        0.0000
     35 H          -6.3335   10.3772    4.8667 H       1  UNL1        0.0000
     36 C          -4.7947   11.4783    1.3276 C.3     1  UNL1        0.0000
     37 H          -4.0082   12.0859    0.8932 H       1  UNL1        0.0000
     38 H          -5.7416   11.9481    1.0781 H       1  UNL1        0.0000
     39 H          -4.7758   10.5101    0.8332 H       1  UNL1        0.0000
     40 C          -4.4789   13.0755    3.9364 C.3     1  UNL1        0.0000
     41 H          -4.8611   13.1387    4.9496 H       1  UNL1        0.0000
     42 H          -5.0275   13.7889    3.3308 H       1  UNL1        0.0000
     43 H          -3.4391   13.3870    3.9566 H       1  UNL1        0.0000
@<TRIPOS>BOND
     1    16    14    1
     2    19    18    1
     3    17    14    1
     4    14    15    1
     5    14    12    1
     6    39    36    1
     7    37    36    1
     8    38    36    1
     9    18    21    1
    10    18    12    1
    11    18    20    1
    12    36     1    1
    13    13    12    1
    14    12     4    1
    15     6     5    1
    16     4     5   ar
    17     4     3   ar
    18     1    32    1
    19     1     2    1
    20     1    40    1
    21    42    40    1
    22    33    32    1
    23    34    32    1
    24     5     7   ar
    25    32    35    1
    26     2     3    1
    27    40    43    1
    28    40    41    1
    29     3    11   ar
    30     7     8    1
    31     7     9   ar
    32    11     9   ar
    33    11    22    1
    34     9    10    1
    35    23    22    1
    36    22    24    1
    37    22    28    1
    38    26    24    1
    39    29    28    1
    40    24    27    1
    41    24    25    1
    42    28    31    1
    43    28    30    1
