@<TRIPOS>MOLECULE
1
 11 11 0 0 0
SMALL
GASTEIGER

@<TRIPOS>ATOM
      1 N           2.9655    2.1243   -1.7967 N.ar    1  UNL1       -0.2633
      2 C           2.6676    3.3831   -1.4599 C.ar    1  UNL1        0.0276
      3 C           1.8837    3.7148   -0.3724 C.ar    1  UNL1       -0.0436
      4 C           1.3674    2.7022    0.4244 C.ar    1  UNL1       -0.0589
      5 C           1.6682    1.3924    0.0767 C.ar    1  UNL1       -0.0436
      6 C           2.4574    1.1531   -1.0308 C.ar    1  UNL1        0.0276
      7 H           3.0735    4.1460   -2.1077 H       1  UNL1        0.0829
      8 H           1.6792    4.7516   -0.1568 H       1  UNL1        0.0633
      9 H           0.7500    2.9247    1.2807 H       1  UNL1        0.0618
     10 H           1.2910    0.5633    0.6545 H       1  UNL1        0.0633
     11 H           2.7052    0.1461   -1.3304 H       1  UNL1        0.0829
@<TRIPOS>BOND
     1     7     2    1
     2     1     2   ar
     3     1     6   ar
     4     2     3   ar
     5    11     6    1
     6     6     5   ar
     7     3     8    1
     8     3     4   ar
     9     5     4   ar
    10     5    10    1
    11     4     9    1
