@<TRIPOS>MOLECULE
1
 11 11 0 0 0
SMALL
GASTEIGER

@<TRIPOS>ATOM
      1 N           6.1127    2.8056   -1.8968 N.ar    1  UNL1       -0.2633
      2 C           6.9608    3.6933   -2.4014 C.ar    1  UNL1        0.0276
      3 C           7.9676    4.2778   -1.6502 C.ar    1  UNL1       -0.0436
      4 C           8.0971    3.9214   -0.3179 C.ar    1  UNL1       -0.0589
      5 C           7.2076    2.9970    0.2090 C.ar    1  UNL1       -0.0436
      6 C           6.2339    2.4659   -0.6187 C.ar    1  UNL1        0.0276
      7 H           6.8270    3.9385   -3.4460 H       1  UNL1        0.0829
      8 H           8.6362    4.9904   -2.1060 H       1  UNL1        0.0633
      9 H           8.8749    4.3503    0.2963 H       1  UNL1        0.0618
     10 H           7.2705    2.6859    1.2398 H       1  UNL1        0.0633
     11 H           5.5295    1.7296   -0.2536 H       1  UNL1        0.0829
@<TRIPOS>BOND
     1     7     2    1
     2     2     1   ar
     3     2     3   ar
     4     8     3    1
     5     1     6   ar
     6     3     4   ar
     7     6    11    1
     8     6     5   ar
     9     4     5   ar
    10     4     9    1
    11     5    10    1
